<?xml version="1.0" encoding="UTF-8"?>

<!-- generated on Thu 11 Jun 2020 11:16:28 AM CST by Eclipse SUMO netedit Version 1.5.0
<configuration xmlns:xsi="http://www.w3.org/2001/XMLSchema-instance" xsi:noNamespaceSchemaLocation="http://sumo.dlr.de/xsd/netconvertConfiguration.xsd">

    <input>
        <sumo-net-file value="/home/ming/Projects/Gitlab/corl_smarts/scenarios/stage2/monte/map.net.xml"/>
    </input>

    <output>
        <output-file value="/home/ming/Projects/Gitlab/corl_smarts/scenarios/stage2/monte/map.net.xml"/>
    </output>

    <processing>
        <geometry.min-radius.fix.railways value="false"/>
        <geometry.max-grade.fix value="false"/>
        <offset.disable-normalization value="true"/>
        <lefthand value="false"/>
    </processing>

    <junctions>
        <no-turnarounds value="true"/>
        <junctions.corner-detail value="5"/>
        <junctions.limit-turn-speed value="5.5"/>
        <rectangular-lane-cut value="false"/>
    </junctions>

    <pedestrian>
        <walkingareas value="false"/>
    </pedestrian>

    <report>
        <aggregate-warnings value="5"/>
    </report>

</configuration>
-->

<net version="1.3" junctionCornerDetail="5" limitTurnSpeed="5.50" xmlns:xsi="http://www.w3.org/2001/XMLSchema-instance" xsi:noNamespaceSchemaLocation="http://sumo.dlr.de/xsd/net_file.xsd">

    <location netOffset="-521724.76,-5050522.45" convBoundary="248.84,1725.82,715.22,2142.94" origBoundary="9.275538,45.578801,9.299444,45.633460" projParameter="+proj=utm +zone=32 +ellps=WGS84 +datum=WGS84 +units=m +no_defs"/>

    <type id="highway.bridleway" priority="1" numLanes="1" speed="2.78" allow="pedestrian" oneway="1" width="2.00"/>
    <type id="highway.bus_guideway" priority="1" numLanes="1" speed="27.78" allow="bus" oneway="1"/>
    <type id="highway.cycleway" priority="1" numLanes="1" speed="8.33" allow="bicycle" oneway="0" width="1.00"/>
    <type id="highway.footway" priority="1" numLanes="1" speed="2.78" allow="pedestrian" oneway="1" width="2.00"/>
    <type id="highway.ford" priority="1" numLanes="1" speed="2.78" allow="army" oneway="0"/>
    <type id="highway.living_street" priority="2" numLanes="1" speed="2.78" disallow="tram rail_urban rail rail_electric rail_fast ship" oneway="0"/>
    <type id="highway.motorway" priority="14" numLanes="2" speed="39.44" allow="private emergency authority army vip passenger hov taxi bus coach delivery truck trailer motorcycle evehicle custom1 custom2" oneway="1"/>
    <type id="highway.motorway_link" priority="9" numLanes="1" speed="22.22" allow="private emergency authority army vip passenger hov taxi bus coach delivery truck trailer motorcycle evehicle custom1 custom2" oneway="1"/>
    <type id="highway.path" priority="1" numLanes="1" speed="2.78" allow="pedestrian bicycle" oneway="1" width="2.00"/>
    <type id="highway.pedestrian" priority="1" numLanes="1" speed="2.78" allow="pedestrian" oneway="1" width="2.00"/>
    <type id="highway.primary" priority="12" numLanes="2" speed="27.78" disallow="tram rail_urban rail rail_electric rail_fast ship" oneway="0"/>
    <type id="highway.primary_link" priority="7" numLanes="1" speed="22.22" disallow="tram rail_urban rail rail_electric rail_fast ship" oneway="0"/>
    <type id="highway.raceway" priority="15" numLanes="2" speed="30.00" allow="vip" oneway="0"/>
    <type id="highway.residential" priority="3" numLanes="1" speed="13.89" disallow="tram rail_urban rail rail_electric rail_fast ship" oneway="0"/>
    <type id="highway.secondary" priority="11" numLanes="1" speed="27.78" disallow="tram rail_urban rail rail_electric rail_fast ship" oneway="0"/>
    <type id="highway.secondary_link" priority="6" numLanes="1" speed="22.22" disallow="tram rail_urban rail rail_electric rail_fast ship" oneway="0"/>
    <type id="highway.service" priority="1" numLanes="1" speed="5.56" allow="pedestrian delivery bicycle" oneway="0"/>
    <type id="highway.stairs" priority="1" numLanes="1" speed="1.39" allow="pedestrian" oneway="1" width="2.00"/>
    <type id="highway.step" priority="1" numLanes="1" speed="1.39" allow="pedestrian" oneway="1" width="2.00"/>
    <type id="highway.steps" priority="1" numLanes="1" speed="1.39" allow="pedestrian" oneway="1" width="2.00"/>
    <type id="highway.tertiary" priority="10" numLanes="1" speed="22.22" disallow="tram rail_urban rail rail_electric rail_fast ship" oneway="0"/>
    <type id="highway.tertiary_link" priority="5" numLanes="1" speed="22.22" disallow="tram rail_urban rail rail_electric rail_fast ship" oneway="0"/>
    <type id="highway.track" priority="1" numLanes="1" speed="5.56" disallow="tram rail_urban rail rail_electric rail_fast ship" oneway="0"/>
    <type id="highway.trunk" priority="13" numLanes="2" speed="27.78" disallow="pedestrian bicycle tram rail_urban rail rail_electric rail_fast ship" oneway="0"/>
    <type id="highway.trunk_link" priority="8" numLanes="1" speed="22.22" disallow="pedestrian bicycle tram rail_urban rail rail_electric rail_fast ship" oneway="0"/>
    <type id="highway.unclassified" priority="4" numLanes="1" speed="13.89" disallow="tram rail_urban rail rail_electric rail_fast ship" oneway="0"/>
    <type id="highway.unsurfaced" priority="1" numLanes="1" speed="8.33" disallow="tram rail_urban rail rail_electric rail_fast ship" oneway="0"/>
    <type id="railway.highspeed" priority="21" numLanes="1" speed="69.44" allow="rail_fast" oneway="1"/>
    <type id="railway.light_rail" priority="19" numLanes="1" speed="27.78" allow="rail_urban" oneway="1"/>
    <type id="railway.preserved" priority="16" numLanes="1" speed="27.78" allow="rail" oneway="1"/>
    <type id="railway.rail" priority="20" numLanes="1" speed="44.44" allow="rail" oneway="1"/>
    <type id="railway.subway" priority="18" numLanes="1" speed="27.78" allow="rail_urban" oneway="1"/>
    <type id="railway.tram" priority="17" numLanes="1" speed="13.89" allow="tram" oneway="1"/>

    <edge id=":1789635680_0" function="internal">
        <lane id=":1789635680_0_0" index="0" disallow="pedestrian tram rail_urban rail rail_electric rail_fast ship" speed="30.00" length="0.46" shape="474.85,1762.06 474.76,1761.98"/>
        <lane id=":1789635680_0_1" index="1" disallow="pedestrian tram rail_urban rail rail_electric rail_fast ship" speed="30.00" length="0.46" shape="476.99,1759.68 476.72,1759.46"/>
        <lane id=":1789635680_0_2" index="2" disallow="pedestrian tram rail_urban rail rail_electric rail_fast ship" speed="30.00" length="0.46" shape="479.13,1757.31 478.69,1756.94"/>
        <lane id=":1789635680_0_3" index="3" disallow="pedestrian tram rail_urban rail rail_electric rail_fast ship" speed="30.00" length="0.46" shape="481.28,1754.93 480.66,1754.41"/>
    </edge>
    <edge id=":1828499267_0" function="internal">
        <lane id=":1828499267_0_0" index="0" disallow="pedestrian tram rail_urban rail rail_electric rail_fast ship" speed="30.00" length="0.48" shape="506.86,1790.95 506.62,1790.73"/>
        <lane id=":1828499267_0_1" index="1" disallow="pedestrian tram rail_urban rail rail_electric rail_fast ship" speed="30.00" length="0.48" shape="509.08,1788.65 508.77,1788.36"/>
        <lane id=":1828499267_0_2" index="2" disallow="pedestrian tram rail_urban rail rail_electric rail_fast ship" speed="30.00" length="0.48" shape="511.31,1786.35 510.91,1785.98"/>
        <lane id=":1828499267_0_3" index="3" disallow="pedestrian tram rail_urban rail rail_electric rail_fast ship" speed="30.00" length="0.48" shape="513.53,1784.05 513.06,1783.60"/>
    </edge>
    <edge id=":1828499271_0" function="internal">
        <lane id=":1828499271_0_0" index="0" disallow="pedestrian tram rail_urban rail rail_electric rail_fast ship" speed="30.00" length="0.30" shape="254.87,1838.00 254.91,1838.31"/>
        <lane id=":1828499271_0_1" index="1" disallow="pedestrian tram rail_urban rail rail_electric rail_fast ship" speed="30.00" length="0.30" shape="251.70,1838.43 251.74,1838.73"/>
        <lane id=":1828499271_0_2" index="2" disallow="pedestrian tram rail_urban rail rail_electric rail_fast ship" speed="30.00" length="0.30" shape="248.52,1838.86 248.56,1839.15"/>
        <lane id=":1828499271_0_3" index="3" disallow="pedestrian tram rail_urban rail rail_electric rail_fast ship" speed="30.00" length="0.30" shape="245.35,1839.28 245.39,1839.56"/>
    </edge>
    <edge id=":1828499278_0" function="internal">
        <lane id=":1828499278_0_0" index="0" disallow="pedestrian tram rail_urban rail rail_electric rail_fast ship" speed="30.00" length="0.29" shape="313.45,1857.46 313.52,1857.69"/>
        <lane id=":1828499278_0_1" index="1" disallow="pedestrian tram rail_urban rail rail_electric rail_fast ship" speed="30.00" length="0.29" shape="310.37,1858.32 310.45,1858.58"/>
        <lane id=":1828499278_0_2" index="2" disallow="pedestrian tram rail_urban rail rail_electric rail_fast ship" speed="30.00" length="0.29" shape="307.29,1859.18 307.37,1859.48"/>
        <lane id=":1828499278_0_3" index="3" disallow="pedestrian tram rail_urban rail rail_electric rail_fast ship" speed="30.00" length="0.29" shape="304.21,1860.04 304.30,1860.37"/>
    </edge>
    <edge id=":1828499323_0" function="internal">
        <lane id=":1828499323_0_0" index="0" disallow="pedestrian tram rail_urban rail rail_electric rail_fast ship" speed="30.00" length="0.33" shape="421.13,2086.96 421.20,2087.00"/>
        <lane id=":1828499323_0_1" index="1" disallow="pedestrian tram rail_urban rail rail_electric rail_fast ship" speed="30.00" length="0.33" shape="419.44,2089.68 419.65,2089.80"/>
        <lane id=":1828499323_0_2" index="2" disallow="pedestrian tram rail_urban rail rail_electric rail_fast ship" speed="30.00" length="0.33" shape="417.74,2092.39 418.10,2092.60"/>
        <lane id=":1828499323_0_3" index="3" disallow="pedestrian tram rail_urban rail rail_electric rail_fast ship" speed="30.00" length="0.33" shape="416.05,2095.11 416.55,2095.40"/>
    </edge>
    <edge id=":1904158064_0" function="internal">
        <lane id=":1904158064_0_0" index="0" disallow="pedestrian tram rail_urban rail rail_electric rail_fast ship" speed="30.00" length="1.85" shape="286.84,1914.61 286.80,1914.74 286.78,1914.83 286.78,1914.92 286.78,1915.06"/>
        <lane id=":1904158064_0_1" index="1" disallow="pedestrian tram rail_urban rail rail_electric rail_fast ship" speed="17.34" length="1.85" shape="283.76,1913.73 283.65,1914.12 283.60,1914.40 283.58,1914.68 283.58,1915.09"/>
        <lane id=":1904158064_0_2" index="2" disallow="pedestrian tram rail_urban rail rail_electric rail_fast ship" speed="22.32" length="1.85" shape="280.69,1912.85 280.50,1913.51 280.41,1913.97 280.38,1914.44 280.38,1915.12"/>
        <lane id=":1904158064_0_3" index="3" disallow="pedestrian tram rail_urban rail rail_electric rail_fast ship" speed="26.38" length="1.85" shape="277.61,1911.97 277.35,1912.89 277.22,1913.54 277.18,1914.19 277.18,1915.15"/>
    </edge>
    <edge id=":1904158067_0" function="internal">
        <lane id=":1904158067_0_0" index="0" disallow="pedestrian tram rail_urban rail rail_electric rail_fast ship" speed="30.00" length="0.53" shape="374.42,2051.47 374.68,2051.70"/>
        <lane id=":1904158067_0_1" index="1" disallow="pedestrian tram rail_urban rail rail_electric rail_fast ship" speed="30.00" length="0.53" shape="372.26,2053.83 372.62,2054.14"/>
        <lane id=":1904158067_0_2" index="2" disallow="pedestrian tram rail_urban rail rail_electric rail_fast ship" speed="30.00" length="0.53" shape="370.11,2056.19 370.55,2056.58"/>
        <lane id=":1904158067_0_3" index="3" disallow="pedestrian tram rail_urban rail rail_electric rail_fast ship" speed="30.00" length="0.53" shape="367.95,2058.56 368.48,2059.02"/>
    </edge>
    <edge id=":449389284_0" function="internal">
        <lane id=":449389284_0_0" index="0" disallow="pedestrian tram rail_urban rail rail_electric rail_fast ship" speed="30.00" length="0.46" shape="536.51,1819.59 536.29,1819.37"/>
        <lane id=":449389284_0_1" index="1" disallow="pedestrian tram rail_urban rail rail_electric rail_fast ship" speed="30.00" length="0.46" shape="538.80,1817.36 538.51,1817.07"/>
        <lane id=":449389284_0_2" index="2" disallow="pedestrian tram rail_urban rail rail_electric rail_fast ship" speed="30.00" length="0.46" shape="541.10,1815.13 540.74,1814.77"/>
        <lane id=":449389284_0_3" index="3" disallow="pedestrian tram rail_urban rail rail_electric rail_fast ship" speed="30.00" length="0.46" shape="543.39,1812.90 542.96,1812.47"/>
    </edge>
    <edge id=":449389306_0" function="internal">
        <lane id=":449389306_0_0" index="0" disallow="pedestrian tram rail_urban rail rail_electric rail_fast ship" speed="30.00" length="0.45" shape="695.89,2039.86 695.95,2039.77"/>
        <lane id=":449389306_0_1" index="1" disallow="pedestrian tram rail_urban rail rail_electric rail_fast ship" speed="30.00" length="0.45" shape="698.57,2041.62 698.74,2041.33"/>
        <lane id=":449389306_0_2" index="2" disallow="pedestrian tram rail_urban rail rail_electric rail_fast ship" speed="30.00" length="0.45" shape="701.24,2043.38 701.54,2042.90"/>
        <lane id=":449389306_0_3" index="3" disallow="pedestrian tram rail_urban rail rail_electric rail_fast ship" speed="30.00" length="0.45" shape="703.92,2045.13 704.33,2044.46"/>
    </edge>
    <edge id=":449389307_0" function="internal">
        <lane id=":449389307_0_0" index="0" disallow="pedestrian tram rail_urban rail rail_electric rail_fast ship" speed="30.00" length="0.37" shape="707.70,2003.95 707.85,2003.33"/>
        <lane id=":449389307_0_1" index="1" disallow="pedestrian tram rail_urban rail rail_electric rail_fast ship" speed="30.00" length="0.37" shape="710.83,2004.62 710.94,2004.18"/>
        <lane id=":449389307_0_2" index="2" disallow="pedestrian tram rail_urban rail rail_electric rail_fast ship" speed="30.00" length="0.37" shape="713.96,2005.30 714.02,2005.03"/>
        <lane id=":449389307_0_3" index="3" disallow="pedestrian tram rail_urban rail rail_electric rail_fast ship" speed="30.00" length="0.37" shape="717.08,2005.97 717.11,2005.88"/>
    </edge>
    <edge id=":615920072_0" function="internal">
        <lane id=":615920072_0_0" index="0" disallow="pedestrian tram rail_urban rail rail_electric rail_fast ship" speed="30.00" length="0.30" shape="332.18,2012.88 332.38,2013.06"/>
        <lane id=":615920072_0_1" index="1" disallow="pedestrian tram rail_urban rail rail_electric rail_fast ship" speed="30.00" length="0.30" shape="330.01,2015.23 330.22,2015.42"/>
        <lane id=":615920072_0_2" index="2" disallow="pedestrian tram rail_urban rail rail_electric rail_fast ship" speed="30.00" length="0.30" shape="327.83,2017.57 328.06,2017.78"/>
        <lane id=":615920072_0_3" index="3" disallow="pedestrian tram rail_urban rail rail_electric rail_fast ship" speed="30.00" length="0.30" shape="325.66,2019.92 325.90,2020.14"/>
    </edge>
    <edge id=":616125018_0" function="internal">
        <lane id=":616125018_0_0" index="0" disallow="pedestrian tram rail_urban rail rail_electric rail_fast ship" speed="30.00" length="1.31" shape="256.69,1844.83 256.75,1844.91 256.79,1844.96 256.83,1845.01 256.90,1845.08"/>
        <lane id=":616125018_0_1" index="1" disallow="pedestrian tram rail_urban rail rail_electric rail_fast ship" speed="30.00" length="1.31" shape="254.04,1846.62 254.20,1846.86 254.32,1847.02 254.46,1847.17 254.67,1847.37"/>
        <lane id=":616125018_0_2" index="2" disallow="pedestrian tram rail_urban rail rail_electric rail_fast ship" speed="30.00" length="1.31" shape="251.39,1848.41 251.66,1848.81 251.86,1849.08 252.09,1849.32 252.43,1849.66"/>
        <lane id=":616125018_0_3" index="3" disallow="pedestrian tram rail_urban rail rail_electric rail_fast ship" speed="30.00" length="1.31" shape="248.73,1850.20 249.12,1850.76 249.40,1851.13 249.71,1851.48 250.20,1851.95"/>
    </edge>
    <edge id=":616125717_0" function="internal">
        <lane id=":616125717_0_0" index="0" disallow="pedestrian tram rail_urban rail rail_electric rail_fast ship" speed="30.00" length="0.47" shape="356.38,1736.68 356.27,1736.69"/>
        <lane id=":616125717_0_1" index="1" disallow="pedestrian tram rail_urban rail rail_electric rail_fast ship" speed="30.00" length="0.47" shape="355.99,1733.50 355.65,1733.55"/>
        <lane id=":616125717_0_2" index="2" disallow="pedestrian tram rail_urban rail rail_electric rail_fast ship" speed="30.00" length="0.47" shape="355.61,1730.32 355.03,1730.41"/>
        <lane id=":616125717_0_3" index="3" disallow="pedestrian tram rail_urban rail rail_electric rail_fast ship" speed="30.00" length="0.47" shape="355.22,1727.15 354.42,1727.27"/>
    </edge>

    <edge id="179968220" from="1904158067" to="1828499323" priority="15" type="highway.raceway" spreadType="center" shape="371.38,2055.19 387.85,2069.14 396.86,2076.69 407.64,2084.20 418.73,2091.12">
        <lane id="179968220_0" index="0" disallow="pedestrian tram rail_urban rail rail_electric rail_fast ship" speed="30.00" length="59.12" shape="374.68,2051.70 390.95,2065.47 399.78,2072.87 410.28,2080.19 421.13,2086.96"/>
        <lane id="179968220_1" index="1" disallow="pedestrian tram rail_urban rail rail_electric rail_fast ship" speed="30.00" length="59.12" shape="372.62,2054.14 388.88,2067.92 397.83,2075.42 408.52,2082.86 419.44,2089.68"/>
        <lane id="179968220_2" index="2" disallow="pedestrian tram rail_urban rail rail_electric rail_fast ship" speed="30.00" length="59.12" shape="370.55,2056.58 386.82,2070.36 395.89,2077.96 406.76,2085.54 417.74,2092.39"/>
        <lane id="179968220_3" index="3" disallow="pedestrian tram rail_urban rail rail_electric rail_fast ship" speed="30.00" length="59.12" shape="368.48,2059.02 384.75,2072.81 393.94,2080.51 405.00,2088.21 416.05,2095.11"/>
    </edge>
    <edge id="179968226" from="449389284" to="1828499267" priority="15" type="highway.raceway" spreadType="center">
        <lane id="179968226_0" index="0" disallow="pedestrian tram rail_urban rail rail_electric rail_fast ship" speed="30.00" length="40.91" shape="536.29,1819.37 506.86,1790.95"/>
        <lane id="179968226_1" index="1" disallow="pedestrian tram rail_urban rail rail_electric rail_fast ship" speed="30.00" length="40.91" shape="538.51,1817.07 509.08,1788.65"/>
        <lane id="179968226_2" index="2" disallow="pedestrian tram rail_urban rail rail_electric rail_fast ship" speed="30.00" length="40.91" shape="540.74,1814.77 511.31,1786.35"/>
        <lane id="179968226_3" index="3" disallow="pedestrian tram rail_urban rail rail_electric rail_fast ship" speed="30.00" length="40.91" shape="542.96,1812.47 513.53,1784.05"/>
    </edge>
    <edge id="179968242#0" from="1828499271" to="616125018" priority="15" type="highway.raceway" spreadType="center" shape="250.13,1838.79 250.76,1843.59 251.67,1845.97 253.08,1848.06">
        <lane id="179968242#0_0" index="0" disallow="pedestrian tram rail_urban rail rail_electric rail_fast ship" speed="30.00" length="9.10" shape="254.91,1838.31 255.45,1842.40 255.96,1843.74 256.69,1844.83"/>
        <lane id="179968242#0_1" index="1" disallow="pedestrian tram rail_urban rail rail_electric rail_fast ship" speed="30.00" length="9.10" shape="251.74,1838.73 252.32,1843.19 253.10,1845.23 254.04,1846.62"/>
        <lane id="179968242#0_2" index="2" disallow="pedestrian tram rail_urban rail rail_electric rail_fast ship" speed="30.00" length="9.10" shape="248.56,1839.15 249.20,1843.99 250.24,1846.71 251.39,1848.41"/>
        <lane id="179968242#0_3" index="3" disallow="pedestrian tram rail_urban rail rail_electric rail_fast ship" speed="30.00" length="9.10" shape="245.39,1839.56 246.07,1844.78 247.38,1848.20 248.73,1850.20"/>
    </edge>
    <edge id="179968242#1" from="616125018" to="1828499278" priority="15" type="highway.raceway" spreadType="center" shape="253.08,1848.06 256.73,1851.62 260.62,1853.28 265.12,1853.29 269.84,1852.05 274.77,1850.22 279.42,1848.97 284.85,1848.23 291.80,1848.00 296.78,1848.45 300.88,1849.59 304.56,1851.52 307.61,1854.38 308.87,1858.89">
        <lane id="179968242#1_0" index="0" disallow="pedestrian tram rail_urban rail rail_electric rail_fast ship" speed="30.00" length="62.69" shape="256.90,1845.08 259.44,1847.56 261.61,1848.48 264.51,1848.49 268.39,1847.47 273.31,1845.64 278.47,1844.26 284.45,1843.44 291.94,1843.19 297.65,1843.71 302.66,1845.10 307.37,1847.57 311.87,1851.80 313.45,1857.46"/>
        <lane id="179968242#1_1" index="1" disallow="pedestrian tram rail_urban rail rail_electric rail_fast ship" speed="30.00" length="62.69" shape="254.67,1847.37 257.63,1850.27 260.95,1851.68 264.92,1851.69 269.36,1850.52 274.28,1848.69 279.10,1847.40 284.72,1846.63 291.85,1846.40 297.07,1846.87 301.47,1848.09 305.50,1850.20 309.03,1853.52 310.37,1858.32"/>
        <lane id="179968242#1_2" index="2" disallow="pedestrian tram rail_urban rail rail_electric rail_fast ship" speed="30.00" length="62.69" shape="252.43,1849.66 255.83,1852.97 260.29,1854.88 265.32,1854.89 270.32,1853.58 275.26,1851.75 279.74,1850.54 284.98,1849.83 291.75,1849.60 296.49,1850.03 300.29,1851.09 303.62,1852.84 306.19,1855.24 307.29,1859.18"/>
        <lane id="179968242#1_3" index="3" disallow="pedestrian tram rail_urban rail rail_electric rail_fast ship" speed="30.00" length="62.69" shape="250.20,1851.95 254.02,1855.68 259.63,1858.08 265.73,1858.09 271.29,1856.63 276.23,1854.80 280.37,1853.68 285.25,1853.02 291.66,1852.81 295.91,1853.19 299.10,1854.08 301.75,1855.47 303.35,1856.96 304.21,1860.04"/>
    </edge>
    <edge id="179968249" from="1828499267" to="1789635680" priority="15" type="highway.raceway" spreadType="center">
        <lane id="179968249_0" index="0" disallow="pedestrian tram rail_urban rail rail_electric rail_fast ship" speed="30.00" length="42.80" shape="506.62,1790.73 474.85,1762.06"/>
        <lane id="179968249_1" index="1" disallow="pedestrian tram rail_urban rail rail_electric rail_fast ship" speed="30.00" length="42.80" shape="508.77,1788.36 476.99,1759.68"/>
        <lane id="179968249_2" index="2" disallow="pedestrian tram rail_urban rail rail_electric rail_fast ship" speed="30.00" length="42.80" shape="510.91,1785.98 479.13,1757.31"/>
        <lane id="179968249_3" index="3" disallow="pedestrian tram rail_urban rail rail_electric rail_fast ship" speed="30.00" length="42.80" shape="513.06,1783.60 481.28,1754.93"/>
    </edge>
    <edge id="179968254" from="449389307" to="449389284" priority="15" type="highway.raceway" spreadType="center" shape="712.43,2004.78 714.41,1997.61 715.22,1991.72 714.50,1983.38 711.33,1976.37 706.02,1970.09 699.41,1966.27 691.57,1964.14 682.86,1963.04 672.64,1963.64 667.45,1965.07 659.33,1967.41 648.65,1972.61 640.84,1978.13 634.48,1984.44 628.66,1991.06 623.93,1999.29 619.34,2008.23 615.49,2019.20 612.76,2030.24 610.81,2040.73 609.03,2049.12 605.72,2058.36 601.52,2065.92 595.69,2072.80 589.12,2075.17 582.27,2074.74 573.81,2072.21 567.55,2067.13 562.89,2060.12 561.23,2052.91 561.24,2045.35 562.86,2037.05 564.77,2030.05 566.33,2022.47 567.98,2014.35 568.71,2005.97 568.89,1999.31 568.14,1992.24 566.73,1979.89 565.35,1968.41 563.06,1954.49 560.49,1934.84 559.60,1922.50 559.09,1910.27 559.68,1900.46 561.81,1889.44 564.25,1878.60 566.07,1869.19 564.91,1857.99 562.04,1848.56 559.14,1841.87 553.76,1833.00 547.93,1824.46 539.79,1816.08">
        <lane id="179968254_0" index="0" disallow="pedestrian tram rail_urban rail rail_electric rail_fast ship" speed="30.00" length="507.47" shape="707.85,2003.33 709.70,1996.64 710.39,1991.60 709.79,1984.61 707.23,1978.96 702.89,1973.83 697.55,1970.74 690.64,1968.86 682.70,1967.86 673.43,1968.40 668.76,1969.69 661.06,1971.91 651.10,1976.75 643.94,1981.82 637.98,1987.73 632.58,1993.87 628.15,2001.58 623.76,2010.13 620.09,2020.57 617.45,2031.26 615.52,2041.67 613.66,2050.43 610.11,2060.35 605.49,2068.66 598.52,2076.88 589.81,2080.02 581.42,2079.50 571.52,2076.54 563.96,2070.40 558.41,2062.05 556.43,2053.45 556.44,2044.88 558.18,2035.96 560.10,2028.93 561.63,2021.51 563.22,2013.66 563.92,2005.70 564.08,1999.50 563.37,1992.77 561.96,1980.45 560.60,1969.09 558.31,1955.19 555.71,1935.32 554.81,1922.77 554.28,1910.23 554.91,1899.86 557.11,1888.46 559.55,1877.62 561.22,1868.98 560.18,1858.94 557.53,1850.22 554.87,1844.08 549.72,1835.60 544.20,1827.51 536.51,1819.59"/>
        <lane id="179968254_1" index="1" disallow="pedestrian tram rail_urban rail rail_electric rail_fast ship" speed="30.00" length="507.47" shape="710.94,2004.18 712.84,1997.29 713.61,1991.68 712.93,1983.79 709.96,1977.23 704.98,1971.34 698.79,1967.76 691.26,1965.71 682.81,1964.65 672.90,1965.23 667.89,1966.61 659.91,1968.91 649.47,1973.99 641.87,1979.36 635.65,1985.54 629.97,1992.00 625.34,2000.05 620.81,2008.86 617.02,2019.66 614.32,2030.58 612.38,2041.04 610.57,2049.56 607.18,2059.02 602.84,2066.83 596.63,2074.16 589.35,2076.79 581.99,2076.33 573.05,2073.65 566.35,2068.22 561.40,2060.76 559.63,2053.09 559.64,2045.19 561.30,2036.69 563.21,2029.68 564.76,2022.15 566.39,2014.12 567.11,2005.88 567.29,1999.37 566.55,1992.42 565.14,1980.08 563.77,1968.64 561.48,1954.72 558.90,1935.00 558.00,1922.59 557.49,1910.26 558.09,1900.26 560.24,1889.11 562.68,1878.27 564.45,1869.12 563.33,1858.31 560.54,1849.11 557.72,1842.61 552.41,1833.87 546.69,1825.48 538.80,1817.36"/>
        <lane id="179968254_2" index="2" disallow="pedestrian tram rail_urban rail rail_electric rail_fast ship" speed="30.00" length="507.47" shape="714.02,2005.03 715.98,1997.93 716.83,1991.76 716.07,1982.97 712.70,1975.51 707.06,1968.84 700.03,1964.78 691.88,1962.57 682.91,1961.43 672.38,1962.05 667.01,1963.53 658.75,1965.91 647.83,1971.23 639.81,1976.90 633.31,1983.34 627.35,1990.12 622.52,1998.53 617.87,2007.60 613.96,2018.74 611.20,2029.90 609.24,2040.42 607.49,2048.68 604.26,2057.70 600.20,2065.01 594.75,2071.44 588.89,2073.55 582.55,2073.15 574.57,2070.77 568.75,2066.04 564.38,2059.48 562.83,2052.73 562.84,2045.51 564.42,2037.41 566.33,2030.42 567.90,2022.79 569.57,2014.58 570.31,2006.06 570.49,1999.25 569.73,1992.06 568.32,1979.70 566.93,1968.18 564.64,1954.26 562.08,1934.68 561.20,1922.41 560.69,1910.28 561.27,1900.66 563.38,1889.77 565.82,1878.93 567.69,1869.26 566.49,1857.67 563.54,1848.01 560.56,1841.13 555.11,1832.13 549.17,1823.44 541.10,1815.13"/>
        <lane id="179968254_3" index="3" disallow="pedestrian tram rail_urban rail rail_electric rail_fast ship" speed="30.00" length="507.47" shape="717.11,2005.88 719.12,1998.58 720.05,1991.84 719.21,1982.15 715.43,1973.78 709.15,1966.35 701.27,1961.80 692.50,1959.42 683.02,1958.22 671.85,1958.88 666.14,1960.45 657.60,1962.91 646.20,1968.47 637.74,1974.44 630.98,1981.15 624.74,1988.25 619.71,1997.00 614.92,2006.33 610.89,2017.83 608.07,2029.22 606.10,2039.79 604.40,2047.81 601.33,2056.37 597.55,2063.18 592.86,2068.72 588.43,2070.32 583.12,2069.98 576.10,2067.88 571.14,2063.86 567.37,2058.19 566.03,2052.37 566.04,2045.82 567.54,2038.14 569.44,2031.17 571.03,2023.43 572.74,2015.04 573.50,2006.24 573.70,1999.12 572.91,1991.71 571.50,1979.33 570.10,1967.73 567.81,1953.79 565.27,1934.36 564.39,1922.23 563.90,1910.31 564.45,1901.06 566.51,1890.42 568.95,1879.58 570.92,1869.40 569.64,1857.04 566.55,1846.90 563.41,1839.66 557.80,1830.40 551.66,1821.41 543.39,1812.90"/>
    </edge>
    <edge id="179968264#0" from="1828499278" to="1904158064" priority="15" type="highway.raceway" spreadType="center" shape="308.87,1858.89 310.69,1865.14 310.37,1869.58 308.93,1873.93 307.21,1878.90 305.62,1882.14 302.89,1886.11 299.68,1890.26 296.30,1894.15 291.99,1897.97 287.90,1901.28 285.33,1904.85 283.40,1909.17 281.97,1914.18">
        <lane id="179968264#0_0" index="0" disallow="pedestrian tram rail_urban rail rail_electric rail_fast ship" speed="30.00" length="63.92" shape="313.52,1857.69 315.54,1864.63 315.11,1870.52 313.48,1875.47 311.65,1880.75 309.77,1884.57 306.77,1888.94 303.39,1893.30 299.72,1897.53 295.09,1901.63 291.42,1904.61 289.51,1907.26 287.92,1910.82 286.84,1914.61"/>
        <lane id="179968264#0_1" index="1" disallow="pedestrian tram rail_urban rail rail_electric rail_fast ship" speed="30.00" length="63.92" shape="310.45,1858.58 312.31,1864.97 311.95,1869.89 310.45,1874.44 308.69,1879.52 307.00,1882.95 304.18,1887.05 300.92,1891.27 297.44,1895.28 293.02,1899.19 289.07,1902.39 286.72,1905.65 284.91,1909.72 283.76,1913.73"/>
        <lane id="179968264#0_2" index="2" disallow="pedestrian tram rail_urban rail rail_electric rail_fast ship" speed="30.00" length="63.92" shape="307.37,1859.48 309.07,1865.31 308.79,1869.27 307.41,1873.42 305.73,1878.28 304.24,1881.33 301.60,1885.17 298.44,1889.25 295.16,1893.02 290.96,1896.75 286.73,1900.17 283.94,1904.05 281.89,1908.62 280.69,1912.85"/>
        <lane id="179968264#0_3" index="3" disallow="pedestrian tram rail_urban rail rail_electric rail_fast ship" speed="30.00" length="63.92" shape="304.30,1860.37 305.84,1865.65 305.63,1868.64 304.38,1872.39 302.77,1877.05 301.47,1879.71 299.01,1883.28 295.97,1887.22 292.88,1890.77 288.89,1894.31 284.38,1897.95 281.15,1902.44 278.88,1907.52 277.61,1911.97"/>
    </edge>
    <edge id="179968264#1" from="1904158064" to="615920072" priority="15" type="highway.raceway" spreadType="center" shape="281.97,1914.18 282.31,1950.14 284.87,1960.48 288.59,1969.08 294.78,1978.72 299.31,1985.45 305.85,1994.01 312.00,2000.18 320.41,2008.51 329.03,2016.50">
        <lane id="179968264#1_0" index="0" disallow="pedestrian tram rail_urban rail rail_electric rail_fast ship" speed="30.00" length="117.55" acceleration="1" shape="286.78,1915.06 287.10,1949.53 289.43,1958.94 292.84,1966.82 298.79,1976.08 303.21,1982.65 309.47,1990.85 315.39,1996.78 323.73,2005.04 332.18,2012.88"/>
        <lane id="179968264#1_1" index="1" disallow="pedestrian tram rail_urban rail rail_electric rail_fast ship" speed="30.00" length="117.55" acceleration="1" shape="283.58,1915.09 283.91,1949.94 286.39,1959.97 290.01,1968.33 296.12,1977.84 300.61,1984.52 307.06,1992.96 313.13,1999.05 321.52,2007.35 330.01,2015.23"/>