<?xml version="1.0" encoding="UTF-8"?>

<!-- generated on Mon 08 Jun 2020 06:09:52 PM CST by Eclipse SUMO netedit Version 1.5.0
<configuration xmlns:xsi="http://www.w3.org/2001/XMLSchema-instance" xsi:noNamespaceSchemaLocation="http://sumo.dlr.de/xsd/netconvertConfiguration.xsd">

    <input>
        <sumo-net-file value="/home/ming/Projects/Gitlab/stage2/4fakeinterlagos.net.xml"/>
    </input>

    <output>
        <output-file value="/home/ming/Projects/SMARTS/scenarios/stage2/map.net.xml"/>
    </output>

    <processing>
        <geometry.min-radius.fix.railways value="false"/>
        <geometry.max-grade.fix value="false"/>
        <offset.disable-normalization value="true"/>
        <lefthand value="false"/>
    </processing>

    <junctions>
        <no-turnarounds value="true"/>
        <junctions.corner-detail value="5"/>
        <junctions.limit-turn-speed value="5.5"/>
        <rectangular-lane-cut value="false"/>
    </junctions>

    <pedestrian>
        <walkingareas value="false"/>
    </pedestrian>

    <report>
        <aggregate-warnings value="5"/>
    </report>

</configuration>
-->

<net version="1.3" junctionCornerDetail="5" limitTurnSpeed="5.50" xmlns:xsi="http://www.w3.org/2001/XMLSchema-instance" xsi:noNamespaceSchemaLocation="http://sumo.dlr.de/xsd/net_file.xsd">

    <location netOffset="-326438.83,2622891.96" convBoundary="195.17,688.33,631.27,1613.02" origBoundary="-46.702387,-23.707668,-46.691564,-23.693082" projParameter="+proj=utm +zone=23 +ellps=WGS84 +datum=WGS84 +units=m +no_defs"/>

    <type id="highway.bridleway" priority="1" numLanes="1" speed="2.78" allow="pedestrian" oneway="1" width="2.00"/>
    <type id="highway.bus_guideway" priority="1" numLanes="1" speed="27.78" allow="bus" oneway="1"/>
    <type id="highway.cycleway" priority="1" numLanes="1" speed="8.33" allow="bicycle" oneway="0" width="1.00"/>
    <type id="highway.footway" priority="1" numLanes="1" speed="2.78" allow="pedestrian" oneway="1" width="2.00"/>
    <type id="highway.ford" priority="1" numLanes="1" speed="2.78" allow="army" oneway="0"/>
    <type id="highway.living_street" priority="2" numLanes="1" speed="2.78" disallow="tram rail_urban rail rail_electric rail_fast ship" oneway="0"/>
    <type id="highway.motorway" priority="14" numLanes="2" speed="39.44" allow="private emergency authority army vip passenger hov taxi bus coach delivery truck trailer motorcycle evehicle custom1 custom2" oneway="1"/>
    <type id="highway.motorway_link" priority="9" numLanes="1" speed="22.22" allow="private emergency authority army vip passenger hov taxi bus coach delivery truck trailer motorcycle evehicle custom1 custom2" oneway="1"/>
    <type id="highway.path" priority="1" numLanes="1" speed="2.78" allow="pedestrian bicycle" oneway="1" width="2.00"/>
    <type id="highway.pedestrian" priority="1" numLanes="1" speed="2.78" allow="pedestrian" oneway="1" width="2.00"/>
    <type id="highway.primary" priority="12" numLanes="2" speed="27.78" disallow="tram rail_urban rail rail_electric rail_fast ship" oneway="0"/>
    <type id="highway.primary_link" priority="7" numLanes="1" speed="22.22" disallow="tram rail_urban rail rail_electric rail_fast ship" oneway="0"/>
    <type id="highway.raceway" priority="15" numLanes="2" speed="83.33" allow="vip" oneway="0"/>
    <type id="highway.residential" priority="3" numLanes="1" speed="13.89" disallow="tram rail_urban rail rail_electric rail_fast ship" oneway="0"/>
    <type id="highway.secondary" priority="11" numLanes="1" speed="27.78" disallow="tram rail_urban rail rail_electric rail_fast ship" oneway="0"/>
    <type id="highway.secondary_link" priority="6" numLanes="1" speed="22.22" disallow="tram rail_urban rail rail_electric rail_fast ship" oneway="0"/>
    <type id="highway.service" priority="1" numLanes="1" speed="5.56" allow="pedestrian delivery bicycle" oneway="0"/>
    <type id="highway.stairs" priority="1" numLanes="1" speed="1.39" allow="pedestrian" oneway="1" width="2.00"/>
    <type id="highway.step" priority="1" numLanes="1" speed="1.39" allow="pedestrian" oneway="1" width="2.00"/>
    <type id="highway.steps" priority="1" numLanes="1" speed="1.39" allow="pedestrian" oneway="1" width="2.00"/>
    <type id="highway.tertiary" priority="10" numLanes="1" speed="22.22" disallow="tram rail_urban rail rail_electric rail_fast ship" oneway="0"/>
    <type id="highway.tertiary_link" priority="5" numLanes="1" speed="22.22" disallow="tram rail_urban rail rail_electric rail_fast ship" oneway="0"/>
    <type id="highway.track" priority="1" numLanes="1" speed="5.56" disallow="tram rail_urban rail rail_electric rail_fast ship" oneway="0"/>
    <type id="highway.trunk" priority="13" numLanes="2" speed="27.78" disallow="pedestrian bicycle tram rail_urban rail rail_electric rail_fast ship" oneway="0"/>
    <type id="highway.trunk_link" priority="8" numLanes="1" speed="22.22" disallow="pedestrian bicycle tram rail_urban rail rail_electric rail_fast ship" oneway="0"/>
    <type id="highway.unclassified" priority="4" numLanes="1" speed="13.89" disallow="tram rail_urban rail rail_electric rail_fast ship" oneway="0"/>
    <type id="highway.unsurfaced" priority="1" numLanes="1" speed="8.33" disallow="tram rail_urban rail rail_electric rail_fast ship" oneway="0"/>
    <type id="railway.highspeed" priority="21" numLanes="1" speed="69.44" allow="rail_fast" oneway="1"/>
    <type id="railway.light_rail" priority="19" numLanes="1" speed="27.78" allow="rail_urban" oneway="1"/>
    <type id="railway.preserved" priority="16" numLanes="1" speed="27.78" allow="rail" oneway="1"/>
    <type id="railway.rail" priority="20" numLanes="1" speed="44.44" allow="rail" oneway="1"/>
    <type id="railway.subway" priority="18" numLanes="1" speed="27.78" allow="rail_urban" oneway="1"/>
    <type id="railway.tram" priority="17" numLanes="1" speed="13.89" allow="tram" oneway="1"/>

    <edge id=":1517636495_0" function="internal">
        <lane id=":1517636495_0_0" index="0" disallow="pedestrian tram rail_urban rail rail_electric rail_fast ship" speed="83.33" length="0.29" shape="468.07,1181.44 467.72,1181.38"/>
        <lane id=":1517636495_0_1" index="1" disallow="pedestrian tram rail_urban rail rail_electric rail_fast ship" speed="83.33" length="0.29" shape="468.62,1178.29 468.31,1178.24"/>
        <lane id=":1517636495_0_2" index="2" disallow="pedestrian tram rail_urban rail rail_electric rail_fast ship" speed="83.33" length="0.29" shape="469.17,1175.14 468.90,1175.09"/>
        <lane id=":1517636495_0_3" index="3" disallow="pedestrian tram rail_urban rail rail_electric rail_fast ship" speed="83.33" length="0.29" shape="469.72,1171.99 469.49,1171.95"/>
    </edge>
    <edge id=":1517636496_0" function="internal">
        <lane id=":1517636496_0_0" index="0" disallow="pedestrian tram rail_urban rail rail_electric rail_fast ship" speed="83.33" length="0.60" shape="386.63,1157.07 387.09,1157.25"/>
        <lane id=":1517636496_0_1" index="1" disallow="pedestrian tram rail_urban rail rail_electric rail_fast ship" speed="83.33" length="0.60" shape="387.85,1154.11 388.50,1154.38"/>
    </edge>
    <edge id=":1517636502_0" function="internal">
        <lane id=":1517636502_0_0" index="0" disallow="pedestrian tram rail_urban rail rail_electric rail_fast ship" speed="83.33" length="0.27" shape="320.36,1124.55 320.00,1124.35"/>
        <lane id=":1517636502_0_1" index="1" disallow="pedestrian tram rail_urban rail rail_electric rail_fast ship" speed="83.33" length="0.27" shape="321.77,1121.67 321.65,1121.61"/>
    </edge>
    <edge id=":1517636527_0" function="internal">
        <lane id=":1517636527_0_0" index="0" disallow="pedestrian tram rail_urban rail rail_electric rail_fast ship" speed="83.33" length="1.49" shape="632.86,1106.64 633.24,1107.31 633.47,1107.79 633.65,1108.29 633.87,1109.02"/>
        <lane id=":1517636527_0_1" index="1" disallow="pedestrian tram rail_urban rail rail_electric rail_fast ship" speed="83.33" length="1.49" shape="630.08,1108.23 630.35,1108.71 630.52,1109.05 630.65,1109.40 630.81,1109.93"/>
        <lane id=":1517636527_0_2" index="2" disallow="pedestrian tram rail_urban rail rail_electric rail_fast ship" speed="83.33" length="1.49" shape="627.30,1109.82 627.46,1110.10 627.56,1110.31 627.64,1110.52 627.74,1110.84"/>
        <lane id=":1517636527_0_3" index="3" disallow="pedestrian tram rail_urban rail rail_electric rail_fast ship" speed="83.33" length="1.49" shape="624.52,1111.40 624.58,1111.50 624.61,1111.57 624.64,1111.64 624.67,1111.74"/>
    </edge>
    <edge id=":1517636536_0" function="internal">
        <lane id=":1517636536_0_0" index="0" disallow="pedestrian tram rail_urban rail rail_electric rail_fast ship" speed="83.33" length="0.37" shape="368.71,952.47 368.89,952.30"/>
        <lane id=":1517636536_0_1" index="1" disallow="pedestrian tram rail_urban rail rail_electric rail_fast ship" speed="83.33" length="0.37" shape="370.92,954.79 371.16,954.56"/>
        <lane id=":1517636536_0_2" index="2" disallow="pedestrian tram rail_urban rail rail_electric rail_fast ship" speed="83.33" length="0.37" shape="373.13,957.11 373.42,956.82"/>
        <lane id=":1517636536_0_3" index="3" disallow="pedestrian tram rail_urban rail rail_electric rail_fast ship" speed="83.33" length="0.37" shape="375.34,959.42 375.69,959.08"/>
    </edge>
    <edge id=":1517636644_0" function="internal">
        <lane id=":1517636644_0_0" index="0" disallow="pedestrian tram rail_urban rail rail_electric rail_fast ship" speed="83.33" length="1.34" shape="270.76,785.75 270.86,785.75 270.93,785.75 271.00,785.75 271.10,785.73"/>
        <lane id=":1517636644_0_1" index="1" disallow="pedestrian tram rail_urban rail rail_electric rail_fast ship" speed="83.33" length="1.34" shape="270.54,788.94 270.84,788.96 271.04,788.96 271.25,788.94 271.54,788.90"/>
        <lane id=":1517636644_0_2" index="2" disallow="pedestrian tram rail_urban rail rail_electric rail_fast ship" speed="83.33" length="1.34" shape="270.32,792.13 270.82,792.16 271.16,792.17 271.49,792.14 271.99,792.07"/>
        <lane id=":1517636644_0_3" index="3" disallow="pedestrian tram rail_urban rail rail_electric rail_fast ship" speed="83.33" length="1.34" shape="270.10,795.32 270.79,795.37 271.27,795.37 271.74,795.33 272.43,795.24"/>
    </edge>
    <edge id=":1517636687_0" function="internal">
        <lane id=":1517636687_0_0" index="0" disallow="pedestrian tram rail_urban rail rail_electric rail_fast ship" speed="83.16" length="0.29" shape="251.04,731.66 251.00,731.86"/>
        <lane id=":1517636687_0_1" index="1" disallow="pedestrian tram rail_urban rail rail_electric rail_fast ship" speed="83.16" length="0.29" shape="247.92,730.95 247.87,731.21"/>
        <lane id=":1517636687_0_2" index="2" disallow="pedestrian tram rail_urban rail rail_electric rail_fast ship" speed="83.16" length="0.29" shape="244.80,730.25 244.73,730.55"/>
        <lane id=":1517636687_0_3" index="3" disallow="pedestrian tram rail_urban rail rail_electric rail_fast ship" speed="83.16" length="0.29" shape="241.68,729.54 241.60,729.90"/>
    </edge>
    <edge id=":1517636697_0" function="internal">
        <lane id=":1517636697_0_0" index="0" disallow="pedestrian tram rail_urban rail rail_electric rail_fast ship" speed="83.16" length="0.81" shape="202.01,709.21 202.10,708.79 202.17,708.51 202.26,708.24 202.40,707.84"/>
        <lane id=":1517636697_0_1" index="1" disallow="pedestrian tram rail_urban rail rail_electric rail_fast ship" speed="83.16" length="0.81" shape="205.14,709.88 205.20,709.59 205.26,709.39 205.32,709.19 205.42,708.90"/>
        <lane id=":1517636697_0_2" index="2" disallow="pedestrian tram rail_urban rail rail_electric rail_fast ship" speed="83.16" length="0.81" shape="208.27,710.56 208.31,710.38 208.34,710.26 208.37,710.14 208.43,709.97"/>
        <lane id=":1517636697_0_3" index="3" disallow="pedestrian tram rail_urban rail rail_electric rail_fast ship" speed="83.16" length="0.81" shape="211.40,711.23 211.41,711.17 211.42,711.13 211.43,711.09 211.45,711.03"/>
    </edge>
    <edge id=":1519118727_0" function="internal">
        <lane id=":1519118727_0_0" index="0" disallow="pedestrian tram rail_urban rail rail_electric rail_fast ship" speed="83.33" length="32.77" shape="304.32,1114.53 298.10,1111.02 291.52,1108.12 284.50,1103.96 276.97,1096.69"/>
        <lane id=":1519118727_0_1" index="1" disallow="pedestrian tram rail_urban rail rail_electric rail_fast ship" speed="83.33" length="32.77" shape="306.53,1112.18 300.34,1108.70 293.81,1105.87 286.87,1101.81 279.44,1094.65"/>
    </edge>
    <edge id=":1519118727_2" function="internal">
        <lane id=":1519118727_2_0" index="0" disallow="pedestrian tram rail_urban rail rail_electric rail_fast ship" speed="25.37" length="31.72" shape="309.10,1108.62 302.29,1106.41 295.74,1103.92 289.07,1099.77 281.91,1092.61"/>
        <lane id=":1519118727_2_1" index="1" disallow="pedestrian tram rail_urban rail rail_electric rail_fast ship" speed="25.03" length="31.72" shape="310.97,1105.89 304.21,1103.74 297.80,1101.41 291.33,1097.49 284.38,1090.57"/>
    </edge>
    <edge id=":1519118782_0" function="internal">
        <lane id=":1519118782_0_0" index="0" disallow="pedestrian tram rail_urban rail rail_electric rail_fast ship" speed="83.33" length="2.59" shape="348.26,971.77 348.44,971.70 348.56,971.64 348.66,971.56 348.81,971.43"/>
        <lane id=":1519118782_0_1" index="1" disallow="pedestrian tram rail_urban rail rail_electric rail_fast ship" speed="8.96" length="2.59" shape="349.39,974.77 349.92,974.56 350.28,974.38 350.59,974.14 351.01,973.75"/>
        <lane id=":1519118782_0_2" index="2" disallow="pedestrian tram rail_urban rail rail_electric rail_fast ship" speed="11.45" length="2.59" shape="350.51,977.77 351.40,977.42 351.99,977.12 352.52,976.72 353.22,976.07"/>
        <lane id=":1519118782_0_3" index="3" disallow="pedestrian tram rail_urban rail rail_electric rail_fast ship" speed="13.48" length="2.59" shape="351.63,980.76 352.88,980.28 353.71,979.86 354.44,979.30 355.43,978.39"/>
    </edge>
    <edge id=":1519466136_0" function="internal">
        <lane id=":1519466136_0_0" index="0" disallow="pedestrian tram rail_urban rail rail_electric rail_fast ship" speed="83.33" length="0.30" shape="577.98,1014.28 578.13,1014.53"/>
        <lane id=":1519466136_0_1" index="1" disallow="pedestrian tram rail_urban rail rail_electric rail_fast ship" speed="83.33" length="0.30" shape="575.24,1015.92 575.39,1016.17"/>
        <lane id=":1519466136_0_2" index="2" disallow="pedestrian tram rail_urban rail rail_electric rail_fast ship" speed="83.33" length="0.30" shape="572.49,1017.56 572.65,1017.82"/>
        <lane id=":1519466136_0_3" index="3" disallow="pedestrian tram rail_urban rail rail_electric rail_fast ship" speed="83.33" length="0.30" shape="569.74,1019.21 569.90,1019.47"/>
    </edge>
    <edge id=":165492104_0" function="internal">
        <lane id=":165492104_0_0" index="0" disallow="pedestrian tram rail_urban rail rail_electric rail_fast ship" speed="83.33" length="0.34" shape="308.79,765.36 309.27,765.03"/>
        <lane id=":165492104_0_1" index="1" disallow="pedestrian tram rail_urban rail rail_electric rail_fast ship" speed="83.33" length="0.34" shape="310.67,767.95 311.02,767.71"/>
        <lane id=":165492104_0_2" index="2" disallow="pedestrian tram rail_urban rail rail_electric rail_fast ship" speed="83.33" length="0.34" shape="312.56,770.53 312.76,770.39"/>
        <lane id=":165492104_0_3" index="3" disallow="pedestrian tram rail_urban rail rail_electric rail_fast ship" speed="83.33" length="0.34" shape="314.44,773.12 314.51,773.07"/>
    </edge>
    <edge id=":165492110_0" function="internal">
        <lane id=":165492110_0_0" index="0" disallow="pedestrian tram rail_urban rail rail_electric rail_fast ship" speed="83.33" length="0.29" shape="350.50,863.33 350.33,863.49"/>
        <lane id=":165492110_0_1" index="1" disallow="pedestrian tram rail_urban rail rail_electric rail_fast ship" speed="83.33" length="0.29" shape="348.30,861.01 348.10,861.20"/>
        <lane id=":165492110_0_2" index="2" disallow="pedestrian tram rail_urban rail rail_electric rail_fast ship" speed="83.33" length="0.29" shape="346.09,858.69 345.87,858.91"/>
        <lane id=":165492110_0_3" index="3" disallow="pedestrian tram rail_urban rail rail_electric rail_fast ship" speed="83.33" length="0.29" shape="343.89,856.37 343.64,856.61"/>
    </edge>
    <edge id=":165492128_0" function="internal">
        <lane id=":165492128_0_0" index="0" disallow="pedestrian tram rail_urban rail rail_electric rail_fast ship" speed="83.33" length="0.46" shape="603.87,1156.72 603.12,1157.02"/>
        <lane id=":165492128_0_1" index="1" disallow="pedestrian tram rail_urban rail rail_electric rail_fast ship" speed="83.33" length="0.46" shape="602.56,1153.80 602.03,1154.01"/>
        <lane id=":165492128_0_2" index="2" disallow="pedestrian tram rail_urban rail rail_electric rail_fast ship" speed="83.33" length="0.46" shape="601.26,1150.87 600.94,1151.00"/>
        <lane id=":165492128_0_3" index="3" disallow="pedestrian tram rail_urban rail rail_electric rail_fast ship" speed="83.33" length="0.46" shape="599.96,1147.95 599.85,1148.00"/>
    </edge>
    <edge id=":165492129_0" function="internal">
        <lane id=":165492129_0_0" index="0" disallow="pedestrian tram rail_urban rail rail_electric rail_fast ship" speed="83.33" length="0.34" shape="544.25,1178.33 543.83,1178.47"/>
        <lane id=":165492129_0_1" index="1" disallow="pedestrian tram rail_urban rail rail_electric rail_fast ship" speed="83.33" length="0.34" shape="543.17,1175.32 542.81,1175.44"/>
        <lane id=":165492129_0_2" index="2" disallow="pedestrian tram rail_urban rail rail_electric rail_fast ship" speed="83.33" length="0.34" shape="542.08,1172.31 541.79,1172.41"/>
        <lane id=":165492129_0_3" index="3" disallow="pedestrian tram rail_urban rail rail_electric rail_fast ship" speed="83.33" length="0.34" shape="540.99,1169.30 540.77,1169.37"/>
    </edge>
    <edge id=":165492136_0" function="internal">
        <lane id=":165492136_0_0" index="0" disallow="pedestrian tram rail_urban rail rail_electric rail_fast ship" speed="83.33" length="0.58" shape="222.98,970.20 222.80,969.44"/>
        <lane id=":165492136_0_1" index="1" disallow="pedestrian tram rail_urban rail rail_electric rail_fast ship" speed="83.33" length="0.58" shape="226.08,969.42 225.93,968.79"/>
        <lane id=":165492136_0_2" index="2" disallow="pedestrian tram rail_urban rail rail_electric rail_fast ship" speed="83.33" length="0.58" shape="229.18,968.64 229.07,968.14"/>
        <lane id=":165492136_0_3" index="3" disallow="pedestrian tram rail_urban rail rail_electric rail_fast ship" speed="83.33" length="0.58" shape="232.29,967.86 232.20,967.49"/>
    </edge>
    <edge id=":2001336268_0" function="internal">
        <lane id=":2001336268_0_0" index="0" disallow="pedestrian tram rail_urban rail rail_electric rail_fast ship" speed="83.33" length="19.40" shape="403.03,1167.75 397.81,1165.57 394.77,1162.90 391.81,1160.01 386.82,1157.15"/>
        <lane id=":2001336268_0_1" index="1" disallow="pedestrian tram rail_urban rail rail_electric rail_fast ship" speed="83.33" length="19.40" shape="403.85,1164.66 398.75,1162.51 395.79,1159.87 392.92,1157.01 388.03,1154.19"/>
    </edge>
    <edge id=":2001336268_2" function="internal">
        <lane id=":2001336268_2_0" index="0" disallow="pedestrian tram rail_urban rail rail_electric rail_fast ship" speed="12.06" length="19.14" shape="404.67,1161.56 400.17,1159.79 396.50,1157.05 393.66,1153.37 391.64,1148.72"/>
    </edge>
    <edge id=":2001336268_3" function="internal">
        <lane id=":2001336268_3_0" index="0" disallow="pedestrian tram rail_urban rail rail_electric rail_fast ship" speed="10.34" length="18.19" shape="405.49,1158.47 400.86,1156.64 397.44,1153.92 395.24,1150.30 394.26,1145.80"/>
    </edge>
    <edge id=":2001336324_0" function="internal">
        <lane id=":2001336324_0_0" index="0" disallow="pedestrian tram rail_urban rail rail_electric rail_fast ship" speed="83.33" length="0.28" shape="621.62,1086.98 621.81,1087.30"/>
        <lane id=":2001336324_0_1" index="1" disallow="pedestrian tram rail_urban rail rail_electric rail_fast ship" speed="83.33" length="0.28" shape="618.87,1088.62 619.03,1088.89"/>
        <lane id=":2001336324_0_2" index="2" disallow="pedestrian tram rail_urban rail rail_electric rail_fast ship" speed="83.33" length="0.28" shape="616.12,1090.26 616.25,1090.48"/>
        <lane id=":2001336324_0_3" index="3" disallow="pedestrian tram rail_urban rail rail_electric rail_fast ship" speed="83.33" length="0.28" shape="613.37,1091.90 613.47,1092.06"/>
    </edge>
    <edge id=":2001336464_0" function="internal">
        <lane id=":2001336464_0_0" index="0" disallow="pedestrian tram rail_urban rail rail_electric rail_fast ship" speed="83.33" length="0.34" shape="557.69,980.39 557.93,980.77"/>
        <lane id=":2001336464_0_1" index="1" disallow="pedestrian tram rail_urban rail rail_electric rail_fast ship" speed="83.33" length="0.34" shape="554.98,982.09 555.18,982.41"/>
        <lane id=":2001336464_0_2" index="2" disallow="pedestrian tram rail_urban rail rail_electric rail_fast ship" speed="83.33" length="0.34" shape="552.28,983.80 552.43,984.06"/>
        <lane id=":2001336464_0_3" index="3" disallow="pedestrian tram rail_urban rail rail_electric rail_fast ship" speed="83.33" length="0.34" shape="549.57,985.51 549.69,985.70"/>
    </edge>
    <edge id=":2001336577_0" function="internal">
        <lane id=":2001336577_0_0" index="0" disallow="pedestrian tram rail_urban rail rail_electric rail_fast ship" speed="83.33" length="0.30" shape="209.03,903.03 208.97,902.74"/>
        <lane id=":2001336577_0_1" index="1" disallow="pedestrian tram rail_urban rail rail_electric rail_fast ship" speed="83.33" length="0.30" shape="212.16,902.38 212.10,902.09"/>
        <lane id=":2001336577_0_2" index="2" disallow="pedestrian tram rail_urban rail rail_electric rail_fast ship" speed="83.33" length="0.30" shape="215.30,901.73 215.24,901.44"/>
        <lane id=":2001336577_0_3" index="3" disallow="pedestrian tram rail_urban rail rail_electric rail_fast ship" speed="83.33" length="0.30" shape="218.43,901.08 218.37,900.79"/>
    </edge>
    <edge id=":2007747971_0" function="internal">
        <lane id=":2007747971_0_0" index="0" disallow="pedestrian tram rail_urban rail rail_electric rail_fast ship" speed="83.33" length="2.36" shape="303.95,917.30 303.86,917.45 303.82,917.56 303.79,917.68 303.76,917.85"/>
        <lane id=":2007747971_0_1" index="1" disallow="pedestrian tram rail_urban rail rail_electric rail_fast ship" speed="9.85" length="2.36" shape="301.14,915.75 300.90,916.21 300.75,916.55 300.67,916.90 300.59,917.42"/>
        <lane id=":2007747971_0_2" index="2" disallow="pedestrian tram rail_urban rail rail_electric rail_fast ship" speed="12.60" length="2.36" shape="298.34,914.21 297.93,914.98 297.69,915.53 297.55,916.11 297.42,916.98"/>
        <lane id=":2007747971_0_3" index="3" disallow="pedestrian tram rail_urban rail rail_electric rail_fast ship" speed="14.85" length="2.36" shape="295.54,912.66 294.96,913.74 294.63,914.51 294.43,915.33 294.25,916.54"/>
    </edge>
    <edge id=":386795212_0" function="internal">
        <lane id=":386795212_0_0" index="0" disallow="pedestrian tram rail_urban rail rail_electric rail_fast ship" speed="83.33" length="0.30" shape="204.56,881.44 204.49,881.12"/>
        <lane id=":386795212_0_1" index="1" disallow="pedestrian tram rail_urban rail rail_electric rail_fast ship" speed="83.33" length="0.30" shape="207.69,880.79 207.63,880.49"/>
        <lane id=":386795212_0_2" index="2" disallow="pedestrian tram rail_urban rail rail_electric rail_fast ship" speed="83.33" length="0.30" shape="210.83,880.14 210.77,879.86"/>
        <lane id=":386795212_0_3" index="3" disallow="pedestrian tram rail_urban rail rail_electric rail_fast ship" speed="83.33" length="0.30" shape="213.96,879.49 213.91,879.23"/>
    </edge>

    <edge id="138566993#0" from="165492110" to="2007747971" priority="15" type="highway.raceway" spreadType="center" shape="347.09,859.95 327.35,879.15 314.40,893.65 307.57,902.08 302.65,909.71 299.17,916.02">
        <lane id="138566993#0_0" index="0" disallow="pedestrian tram rail_urban rail rail_electric rail_fast ship" speed="83.33" length="72.78" shape="350.33,863.49 330.82,882.47 318.06,896.76 311.46,904.90 306.77,912.17 303.95,917.30"/>
        <lane id="138566993#0_1" index="1" disallow="pedestrian tram rail_urban rail rail_electric rail_fast ship" speed="83.33" length="72.78" shape="348.10,861.20 328.51,880.26 315.62,894.69 308.87,903.02 304.02,910.53 301.14,915.75"/>
        <lane id="138566993#0_2" index="2" disallow="pedestrian tram rail_urban rail rail_electric rail_fast ship" speed="83.33" length="72.78" shape="345.87,858.91 326.19,878.04 313.18,892.61 306.27,901.14 301.28,908.89 298.34,914.21"/>
        <lane id="138566993#0_3" index="3" disallow="pedestrian tram rail_urban rail rail_electric rail_fast ship" speed="83.33" length="72.78" shape="343.64,856.61 323.88,875.83 310.74,890.54 303.68,899.26 298.53,907.25 295.54,912.66"/>
    </edge>
    <edge id="138566993#3" from="1519118782" to="1517636536" priority="15" type="highway.raceway" spreadType="center">
        <lane id="138566993#3_0" index="0" disallow="pedestrian tram rail_urban rail rail_electric rail_fast ship" speed="83.33" length="27.49" shape="348.81,971.43 368.71,952.47"/>
        <lane id="138566993#3_1" index="1" disallow="pedestrian tram rail_urban rail rail_electric rail_fast ship" speed="83.33" length="27.49" shape="351.01,973.75 370.92,954.79"/>
        <lane id="138566993#3_2" index="2" disallow="pedestrian tram rail_urban rail rail_electric rail_fast ship" speed="83.33" length="27.49" shape="353.22,976.07 373.13,957.11"/>
        <lane id="138566993#3_3" index="3" disallow="pedestrian tram rail_urban rail rail_electric rail_fast ship" speed="83.33" length="27.49" shape="355.43,978.39 375.34,959.42"/>
    </edge>
    <edge id="138566998" from="165492104" to="165492110" priority="15" type="highway.raceway" spreadType="center" shape="311.75,769.14 318.37,764.83 325.99,761.45 335.07,759.27 342.84,758.97 349.90,759.84 357.03,762.29 363.39,765.72 368.89,770.04 374.29,775.76 378.51,782.33 381.56,789.18 383.37,796.14 384.22,804.35 383.62,811.65 381.87,818.81 379.32,824.66 375.44,830.97 368.32,839.80 347.09,859.95">
        <lane id="138566998_0" index="0" disallow="pedestrian tram rail_urban rail rail_electric rail_fast ship" speed="83.33" length="169.62" shape="309.27,765.03 316.07,760.60 324.44,756.88 334.41,754.49 343.04,754.16 350.99,755.14 358.96,757.88 366.03,761.69 372.14,766.49 378.09,772.79 382.75,780.04 386.11,787.59 388.11,795.28 389.04,804.30 388.37,812.42 386.43,820.35 383.59,826.89 379.37,833.74 371.86,843.06 350.50,863.33"/>
        <lane id="138566998_1" index="1" disallow="pedestrian tram rail_urban rail rail_electric rail_fast ship" speed="83.33" length="169.62" shape="311.02,767.71 317.60,763.42 325.47,759.93 334.85,757.68 342.91,757.37 350.26,758.27 357.67,760.82 364.27,764.38 369.97,768.86 375.56,774.77 379.92,781.57 383.08,788.65 384.95,795.85 385.83,804.33 385.20,811.91 383.39,819.32 380.74,825.40 376.75,831.89 369.50,840.89 348.30,861.01"/>
        <lane id="138566998_2" index="2" disallow="pedestrian tram rail_urban rail rail_electric rail_fast ship" speed="83.33" length="169.62" shape="312.76,770.39 319.14,766.24 326.51,762.97 335.29,760.86 342.77,760.57 349.54,761.41 356.39,763.76 362.51,767.06 367.81,771.22 373.02,776.75 377.10,783.09 380.04,789.71 381.79,796.43 382.61,804.37 382.04,811.39 380.35,818.30 377.90,823.92 374.13,830.05 367.14,838.71 346.09,858.69"/>
        <lane id="138566998_3" index="3" disallow="pedestrian tram rail_urban rail rail_electric rail_fast ship" speed="83.33" length="169.62" shape="314.51,773.07 320.67,769.06 327.54,766.02 335.73,764.05 342.64,763.78 348.81,764.54 355.10,766.70 360.75,769.75 365.64,773.59 370.49,778.73 374.27,784.62 377.01,790.77 378.63,797.00 379.40,804.40 378.87,810.88 377.31,817.27 375.05,822.43 371.51,828.20 364.78,836.54 343.89,856.37"/>
    </edge>
    <edge id="138566999" from="2001336464" to="1519466136" priority="15" type="highway.raceway" spreadType="center">
        <lane id="138566999_0" index="0" disallow="pedestrian tram rail_urban rail rail_electric rail_fast ship" speed="83.33" length="39.05" shape="557.93,980.77 577.98,1014.28"/>
        <lane id="138566999_1" index="1" disallow="pedestrian tram rail_urban rail rail_electric rail_fast ship" speed="83.33" length="39.05" shape="555.18,982.41 575.24,1015.92"/>
        <lane id="138566999_2" index="2" disallow="pedestrian tram rail_urban rail rail_electric rail_fast ship" speed="83.33" length="39.05" shape="552.43,984.06 572.49,1017.56"/>
        <lane id="138566999_3" index="3" disallow="pedestrian tram rail_urban rail rail_electric rail_fast ship" speed="83.33" length="39.05" shape="549.69,985.70 569.74,1019.21"/>
    </edge>
    <edge id="138567234#0" from="165492136" to="2001336577" priority="15" type="highway.raceway" spreadType="center" shape="227.56,968.75 221.84,941.19 213.70,901.91">
        <lane id="138567234#0_0" index="0" disallow="pedestrian tram rail_urban rail rail_electric rail_fast ship" speed="83.33" length="67.82" shape="222.80,969.44 217.14,942.16 209.03,903.03"/>
        <lane id="138567234#0_1" index="1" disallow="pedestrian tram rail_urban rail rail_electric rail_fast ship" speed="83.33" length="67.82" shape="225.93,968.79 220.27,941.51 212.16,902.38"/>
        <lane id="138567234#0_2" index="2" disallow="pedestrian tram rail_urban rail rail_electric rail_fast ship" speed="83.33" length="67.82" shape="229.07,968.14 223.41,940.87 215.30,901.73"/>