<?xml version="1.0" encoding="UTF-8"?>

<!-- generated on Mon 18 May 2020 04:06:45 PM CST by Eclipse SUMO netedit Version 1.5.0
<configuration xmlns:xsi="http://www.w3.org/2001/XMLSchema-instance" xsi:noNamespaceSchemaLocation="http://sumo.dlr.de/xsd/netconvertConfiguration.xsd">

    <input>
        <sumo-net-file value="/home/ming/Downloads/dataset_public/3lane_sharp_bwd_b/map.net.xml"/>
    </input>

    <output>
        <output-file value="/home/ming/Downloads/dataset_public/3lane_sharp_bwd_b/map.net.xml"/>
    </output>

    <processing>
        <geometry.min-radius.fix.railways value="false"/>
        <geometry.max-grade.fix value="false"/>
        <offset.disable-normalization value="true"/>
        <lefthand value="false"/>
    </processing>

    <junctions>
        <no-turnarounds value="true"/>
        <junctions.corner-detail value="5"/>
        <junctions.limit-turn-speed value="5.5"/>
        <rectangular-lane-cut value="false"/>
    </junctions>

    <pedestrian>
        <walkingareas value="false"/>
    </pedestrian>

    <report>
        <aggregate-warnings value="5"/>
    </report>

</configuration>
-->

<net version="1.3" junctionCornerDetail="5" limitTurnSpeed="5.50" xmlns:xsi="http://www.w3.org/2001/XMLSchema-instance" xsi:noNamespaceSchemaLocation="http://sumo.dlr.de/xsd/net_file.xsd">

    <location netOffset="-630882.85,-4856133.12" convBoundary="-136.21,3.83,200.67,172.76" origBoundary="-79.371708,43.846679,-79.369237,43.847436" projParameter="+proj=utm +zone=17 +ellps=WGS84 +datum=WGS84 +units=m +no_defs"/>

    <type id="highway.bridleway" priority="1" numLanes="1" speed="2.78" allow="pedestrian" oneway="1" width="2.00"/>
    <type id="highway.bus_guideway" priority="1" numLanes="1" speed="27.78" allow="bus" oneway="1"/>
    <type id="highway.cycleway" priority="1" numLanes="1" speed="8.33" allow="bicycle" oneway="0" width="1.00"/>
    <type id="highway.footway" priority="1" numLanes="1" speed="2.78" allow="pedestrian" oneway="1" width="2.00"/>
    <type id="highway.ford" priority="1" numLanes="1" speed="2.78" allow="army" oneway="0"/>
    <type id="highway.living_street" priority="2" numLanes="1" speed="2.78" disallow="tram rail_urban rail rail_electric ship" oneway="0"/>
    <type id="highway.motorway" priority="14" numLanes="2" speed="39.44" allow="private emergency authority army vip passenger hov taxi bus coach delivery truck trailer motorcycle evehicle custom1 custom2" oneway="1"/>
    <type id="highway.motorway_link" priority="9" numLanes="1" speed="22.22" allow="private emergency authority army vip passenger hov taxi bus coach delivery truck trailer motorcycle evehicle custom1 custom2" oneway="1"/>
    <type id="highway.path" priority="1" numLanes="1" speed="2.78" allow="pedestrian bicycle" oneway="1" width="2.00"/>
    <type id="highway.pedestrian" priority="1" numLanes="1" speed="2.78" allow="pedestrian" oneway="1" width="2.00"/>
    <type id="highway.primary" priority="12" numLanes="2" speed="27.78" disallow="tram rail_urban rail rail_electric ship" oneway="0"/>
    <type id="highway.primary_link" priority="7" numLanes="1" speed="22.22" disallow="tram rail_urban rail rail_electric ship" oneway="0"/>
    <type id="highway.raceway" priority="15" numLanes="2" speed="83.33" allow="vip" oneway="0"/>
    <type id="highway.residential" priority="3" numLanes="1" speed="13.89" disallow="tram rail_urban rail rail_electric ship" oneway="0"/>
    <type id="highway.secondary" priority="11" numLanes="2" speed="27.78" disallow="tram rail_urban rail rail_electric ship" oneway="0"/>
    <type id="highway.secondary_link" priority="6" numLanes="1" speed="22.22" disallow="tram rail_urban rail rail_electric ship" oneway="0"/>
    <type id="highway.service" priority="1" numLanes="1" speed="5.56" allow="pedestrian delivery bicycle" oneway="0"/>
    <type id="highway.stairs" priority="1" numLanes="1" speed="1.39" allow="pedestrian" oneway="1" width="2.00"/>
    <type id="highway.step" priority="1" numLanes="1" speed="1.39" allow="pedestrian" oneway="1" width="2.00"/>
    <type id="highway.steps" priority="1" numLanes="1" speed="1.39" allow="pedestrian" oneway="1" width="2.00"/>
    <type id="highway.tertiary" priority="10" numLanes="1" speed="22.22" disallow="tram rail_urban rail rail_electric ship" oneway="0"/>
    <type id="highway.tertiary_link" priority="5" numLanes="1" speed="22.22" disallow="tram rail_urban rail rail_electric ship" oneway="0"/>
    <type id="highway.track" priority="1" numLanes="1" speed="5.56" disallow="tram rail_urban rail rail_electric ship" oneway="0"/>
    <type id="highway.trunk" priority="13" numLanes="2" speed="27.78" disallow="pedestrian bicycle tram rail_urban rail rail_electric ship" oneway="0"/>
    <type id="highway.trunk_link" priority="8" numLanes="1" speed="22.22" disallow="pedestrian bicycle tram rail_urban rail rail_electric ship" oneway="0"/>
    <type id="highway.unclassified" priority="4" numLanes="1" speed="13.89" disallow="tram rail_urban rail rail_electric ship" oneway="0"/>
    <type id="highway.unsurfaced" priority="1" numLanes="1" speed="8.33" disallow="tram rail_urban rail rail_electric ship" oneway="0"/>
    <type id="railway.light_rail" priority="19" numLanes="1" speed="27.78" allow="rail_urban" oneway="1"/>
    <type id="railway.preserved" priority="16" numLanes="1" speed="27.78" allow="rail" oneway="1"/>
    <type id="railway.rail" priority="20" numLanes="1" speed="83.33" allow="rail rail_electric" oneway="1"/>
    <type id="railway.subway" priority="18" numLanes="1" speed="27.78" allow="rail_urban" oneway="1"/>
    <type id="railway.tram" priority="17" numLanes="1" speed="13.89" allow="tram" oneway="1"/>

    <edge id=":junction0_0" function="internal">
        <lane id=":junction0_0_0" index="0" disallow="tram rail_urban rail rail_electric rail_fast ship" speed="16.67" length="1.90" shape="-50.60,7.39 -50.79,7.39 -50.92,7.41 -51.04,7.45 -51.21,7.52"/>
        <lane id=":junction0_0_1" index="1" disallow="tram rail_urban rail rail_electric rail_fast ship" speed="9.16" length="1.90" shape="-50.67,4.19 -51.24,4.21 -51.62,4.26 -51.99,4.38 -52.50,4.60"/>
        <lane id=":junction0_0_2" index="2" disallow="tram rail_urban rail rail_electric rail_fast ship" speed="11.70" length="1.90" shape="-50.74,0.99 -51.68,1.02 -52.32,1.11 -52.94,1.30 -53.80,1.67"/>
    </edge>
    <edge id=":junction1_0" function="internal">
        <lane id=":junction1_0_0" index="0" disallow="tram rail_urban rail rail_electric rail_fast ship" speed="4.35" length="3.32" shape="-132.64,51.91 -132.73,52.22 -132.76,52.44 -132.72,52.67 -132.61,52.98"/>
        <lane id=":junction1_0_1" index="1" disallow="tram rail_urban rail rail_electric rail_fast ship" speed="6.92" length="3.32" shape="-135.68,50.90 -135.96,51.84 -136.04,52.52 -135.93,53.19 -135.61,54.11"/>
        <lane id=":junction1_0_2" index="2" disallow="tram rail_urban rail rail_electric rail_fast ship" speed="8.77" length="3.32" shape="-138.71,49.90 -139.18,51.45 -139.33,52.59 -139.13,53.71 -138.60,55.25"/>
    </edge>

    <edge id="edge0" from="junction1" to="junction0" priority="11" type="highway.secondary" spreadType="center" shape="-136.21,52.52 -132.89,61.26 -127.55,67.75 -119.60,71.14 -111.50,71.39 -102.57,66.73 -92.46,61.60 -81.81,56.54 -69.44,51.65 -59.41,48.64 -53.25,48.58 -46.42,49.76 -40.21,52.61 -35.26,56.66 -32.50,61.01 -31.70,66.51 -31.91,73.73 -34.38,79.48 -38.02,86.52 -55.25,118.64 -56.64,126.77 -56.22,134.57 -53.73,141.54 -48.53,150.58 -41.54,159.32 -32.89,166.45 -22.92,171.38 -13.06,172.69 -5.37,170.40 1.32,164.90 7.35,156.84 15.88,149.64 23.32,145.47 32.51,139.63 41.79,134.16 46.75,127.62 48.21,118.86 46.18,111.06 45.71,100.25 49.75,91.25 58.71,85.81 69.51,87.35 77.15,92.71 83.37,102.65 89.94,109.18 99.09,110.53 107.14,108.05 111.51,100.10 110.60,91.71 107.40,84.05 100.16,78.54 94.27,73.05 90.55,64.99 91.65,54.52 97.10,45.58 106.64,38.90 116.61,38.16 125.99,41.38 141.96,69.24 145.22,78.58 144.45,86.86 142.01,95.53 140.07,105.58 141.73,114.38 144.20,121.07 143.61,128.98 139.31,136.02 133.17,139.77 125.94,140.16 118.91,140.19 112.63,142.59 109.36,146.72 106.83,151.21 106.67,157.56 108.69,163.49 111.65,168.38 117.54,172.29 123.94,172.76 129.63,170.15 139.04,165.43 178.67,142.82 184.00,137.33 186.18,131.67 200.29,33.35 200.67,26.78 199.66,21.45 198.00,16.00 194.81,11.23 190.33,7.68 185.11,5.23 178.12,3.83 170.00,4.00 75.21,20.72 56.39,31.70 42.36,44.81 34.53,57.64 30.18,70.09 27.68,81.92 22.87,93.12 16.87,100.72 12.48,107.09 6.29,112.24 -1.15,113.68 -7.18,112.56 -11.98,109.39 -14.65,105.06 -15.91,98.93 -14.88,91.50 -11.84,84.89 -9.73,76.30 -10.79,50.43 -22.94,21.55 -27.56,12.73 -35.36,6.39 -43.01,4.02 -51.63,4.21">
        <lane id="edge0_0" index="0" disallow="tram rail_urban rail rail_electric rail_fast ship" speed="16.67" length="1310.18" shape="-132.61,52.98 -130.09,59.63 -125.58,65.11 -118.90,67.96 -112.24,68.17 -104.03,63.88 -93.87,58.73 -83.09,53.60 -70.49,48.62 -59.90,45.44 -52.99,45.38 -45.46,46.68 -38.50,49.87 -32.83,54.51 -29.43,59.87 -28.49,66.32 -28.73,74.43 -31.48,80.85 -35.19,88.01 -52.18,119.69 -53.43,126.96 -53.05,133.93 -50.81,140.19 -45.88,148.77 -39.25,157.06 -31.14,163.75 -21.98,168.28 -13.32,169.43 -6.90,167.52 -1.01,162.67 5.01,154.63 14.05,147.00 21.68,142.72 30.84,136.90 39.62,131.72 43.72,126.32 44.94,119.01 43.00,111.54 42.48,99.63 47.24,89.03 58.03,82.48 70.72,84.29 79.52,90.46 85.89,100.64 91.45,106.17 98.84,107.26 104.96,105.37 108.22,99.44 107.47,92.52 104.78,86.08 98.09,80.99 91.63,74.96 87.28,65.53 88.54,53.47 94.72,43.34 105.53,35.77 117.03,34.92 128.17,38.74 144.88,67.91 148.47,78.18 147.61,87.45 145.13,96.27 143.33,105.59 144.82,113.52 147.44,120.61 146.74,129.99 141.64,138.35 134.15,142.92 126.03,143.36 119.51,143.39 114.59,145.27 112.02,148.51 110.01,152.09 109.88,157.07 111.61,162.13 114.02,166.11 118.61,169.16 123.35,169.51 128.25,167.26 137.53,162.61 176.69,140.27 181.25,135.57 183.06,130.86 197.10,33.03 197.45,26.99 196.55,22.22 195.08,17.39 192.43,13.43 188.63,10.42 184.10,8.29 177.84,7.04 170.31,7.19 76.33,23.77 58.31,34.28 44.86,46.85 37.44,59.02 33.27,70.95 30.75,82.89 25.64,94.77 19.45,102.62 14.87,109.27 7.70,115.23 -1.14,116.94 -8.40,115.59 -14.33,111.67 -17.67,106.26 -19.16,99.04 -17.98,90.59 -14.87,83.83 -12.95,75.98 -13.96,51.14 -25.84,22.92 -30.09,14.80 -36.90,9.26 -43.46,7.23 -50.60,7.39"/>
        <lane id="edge0_1" index="1" disallow="tram rail_urban rail rail_electric rail_fast ship" speed="16.67" length="1310.18" shape="-135.61,54.11 -132.89,61.26 -127.55,67.75 -119.60,71.14 -111.50,71.39 -102.57,66.73 -92.46,61.60 -81.81,56.54 -69.44,51.65 -59.41,48.64 -53.25,48.58 -46.42,49.76 -40.21,52.61 -35.26,56.66 -32.50,61.01 -31.70,66.51 -31.91,73.73 -34.38,79.48 -38.02,86.52 -55.25,118.64 -56.64,126.77 -56.22,134.57 -53.73,141.54 -48.53,150.58 -41.54,159.32 -32.89,166.45 -22.92,171.38 -13.06,172.69 -5.37,170.40 1.32,164.90 7.35,156.84 15.88,149.64 23.32,145.47 32.51,139.63 41.79,134.16 46.75,127.62 48.21,118.86 46.18,111.06 45.71,100.25 49.75,91.25 58.71,85.81 69.51,87.35 77.15,92.71 83.37,102.65 89.94,109.18 99.09,110.53 107.14,108.05 111.51,100.10 110.60,91.71 107.40,84.05 100.16,78.54 94.27,73.05 90.55,64.99 91.65,54.52 97.10,45.58 106.64,38.90 116.61,38.16 125.99,41.38 141.96,69.24 145.22,78.58 144.45,86.86 142.01,95.53 140.07,105.58 141.73,114.38 144.20,121.07 143.61,128.98 139.31,136.02 133.17,139.77 125.94,140.16 118.91,140.19 112.63,142.59 109.36,146.72 106.83,151.21 106.67,157.56 108.69,163.49 111.65,168.38 117.54,172.29 123.94,172.76 129.63,170.15 139.04,165.43 178.67,142.82 184.00,137.33 186.18,131.67 200.29,33.35 200.67,26.78 199.66,21.45 198.00,16.00 194.81,11.23 190.33,7.68 185.11,5.23 178.12,3.83 170.00,4.00 75.21,20.72 56.39,31.70 42.36,44.81 34.53,57.64 30.18,70.09 27.68,81.92 22.87,93.12 16.87,100.72 12.48,107.09 6.29,112.24 -1.15,113.68 -7.18,112.56 -11.98,109.39 -14.65,105.06 -15.91,98.93 -14.88,91.50 -11.84,84.89 -9.73,76.30 -10.79,50.43 -22.94,21.55 -27.56,12.73 -35.36,6.39 -43.01,4.02 -50.67,4.19"/>
        <lane id="edge0_2" index="2" disallow="tram rail_urban rail rail_electric rail_fast ship" speed="16.67" length="1310.18" shape="-138.60,55.25 -135.69,62.89 -129.52,70.39 -120.30,74.32 -110.76,74.61 -101.11,69.58 -91.05,64.47 -80.53,59.48 -68.39,54.68 -58.92,51.84 -53.51,51.78 -47.38,52.84 -41.92,55.35 -37.69,58.81 -35.57,62.15 -34.91,66.70 -35.09,73.03 -37.28,78.11 -40.85,85.03 -58.32,117.59 -59.85,126.58 -59.39,135.21 -56.65,142.89 -51.18,152.39 -43.83,161.58 -34.64,169.15 -23.86,174.48 -12.80,175.95 -3.84,173.28 3.65,167.13 9.69,159.05 17.71,152.28 24.96,148.22 34.18,142.36 43.96,136.60 49.78,128.92 51.48,118.71 49.36,110.58 48.94,100.87 52.26,93.47 59.39,89.14 68.30,90.41 74.78,94.96 80.85,104.66 88.43,112.19 99.34,113.80 109.32,110.73 114.80,100.76 113.73,90.90 110.02,82.02 102.23,76.09 96.91,71.14 93.82,64.45 94.76,55.57 99.48,47.82 107.75,42.03 116.19,41.40 123.81,44.02 139.04,70.57 141.97,78.98 141.29,86.27 138.89,94.79 136.81,105.57 138.64,115.24 140.96,121.53 140.48,127.97 136.98,133.69 132.19,136.62 125.85,136.96 118.31,136.99 110.67,139.91 106.70,144.93 103.65,150.33 103.46,158.05 105.77,164.85 109.28,170.65 116.47,175.42 124.53,176.01 131.01,173.04 140.55,168.25 180.65,145.37 186.75,139.09 189.30,132.48 203.48,33.67 203.89,26.57 202.77,20.68 200.92,14.61 197.19,9.03 192.03,4.94 186.12,2.17 178.40,0.62 169.69,0.81 74.09,17.67 54.47,29.12 39.86,42.77 31.62,56.26 27.09,69.23 24.61,80.95 20.10,91.47 14.29,98.82 10.09,104.91 4.88,109.25 -1.16,110.42 -5.96,109.53 -9.63,107.11 -11.63,103.86 -12.66,98.82 -11.78,92.41 -8.81,85.95 -6.51,76.62 -7.62,49.72 -20.04,20.18 -25.03,10.66 -33.82,3.52 -42.56,0.81 -50.74,0.99"/>
    </edge>
    <edge id="edge1" from="junction0" to="junction1" priority="11" type="highway.secondary" spreadType="center" shape="-51.63,4.21 -124.50,36.33 -133.23,43.50 -136.21,52.52">
        <lane id="edge1_0" index="0" disallow="tram rail_urban rail rail_electric rail_fast ship" speed="16.67" length="97.77" shape="-51.21,7.52 -122.81,39.08 -130.48,45.38 -132.64,51.91"/>
        <lane id="edge1_1" index="1" disallow="tram rail_urban rail rail_electric rail_fast ship" speed="16.67" length="97.77" shape="-52.50,4.60 -124.50,36.33 -133.23,43.50 -135.68,50.90"/>
        <lane id="edge1_2" index="2" disallow="tram rail_urban rail rail_electric rail_fast ship" speed="16.67" length="97.77" shape="-53.80,1.67 -126.19,33.58 -135.98,41.62 -138.71,49.90"/>
    </edge>

    <junction id="junction0" type="priority" x="-51.63" y="4.21" incLanes="edge0_0 edge0_1 edge0_2" intLanes=":junction0_0_0 :junction0_0_1 :junction0_0_2" shape="-50.57,8.99 -50.78,-0.61 -52.18,-0.55 -52.67,-0.47 -53.15,-0.33 -53.70,-0.12 -54.44,0.20">
        <request index="0" response="000" foes="000" cont="0"/>
        <request index="1" response="000" foes="000" cont="0"/>
        <request index="2" response="000" foes="000" cont="0"/>
    </junction>
    <junction id="junction1" type="priority" x="-136.21" y="52.52" incLanes="edge1_0 edge1_1 edge1_2" intLanes=":junction1_0_0 :junction1_0_1 :junction1_0_2" shape="-140.09,55.82 -131.12,52.41 -140.23,49.40 -140.90,51.75 -140.97,52.62 -140.86,53.50 -140.57,54.51">
        <request index="0" response="000" foes="000" cont="0"/>
        <request index="1" response="000" foes="000" cont="0"/>
        <request index="2" response="000" foes="000" cont="0"/>
    </junction>

    <connection from="edge0" to="edge1" fromLane="0" toLane="0" via=":junction0_0_0" dir="s" state="M"/>
    <connection from="edge0" to="edge1" fromLane="1" toLane="1" via=":junction0_0_1" dir="s" state="M"/>
    <connection from="edge0" to="edge1" fromLane="2" toLane="2" via=":junction0_0_2" dir="s" state="M"/>
    <connection from="edge1" to="edge0" fromLane="0" toLane="0" via=":junction1_0_0" dir="s" state="M"/>
    <connection from="edge1" to="edge0" fromLane="1" toLane="1" via=":junction1_0_1" dir="s" state="M"/>
    <connection from="edge1" to="edge0" fromLane="2" toLane="2" via=":junction1_0_2" dir="s" state="M"/>

    <connection from=":junction0_0" to="edge1" fromLane="0" toLane="0" dir="s" state="M"/>
    <connection from=":junction0_0" to="edge1" fromLane="1" toLane="1" dir="s" state="M"/>
    <connection from=":junction0_0" to="edge1" fromLane="2" toLane="2" dir="s" state="M"/>
    <connection from=":junction1_0" to="edge0" fromLane="0" toLane="0" dir="s" state="M"/>
    <connection from=":junction1_0" to="edge0" fromLane="1" toLane="1" dir="s" state="M"/>
    <connection from=":junction1_0" to="edge0" fromLane="2" toLane="2" dir="s" state="M"/>

</net>
