<?xml version="1.0" encoding="UTF-8"?>

<!-- generated on Sun 14 Jun 2020 07:43:20 PM CST by Eclipse SUMO netedit Version 1.5.0
<configuration xmlns:xsi="http://www.w3.org/2001/XMLSchema-instance" xsi:noNamespaceSchemaLocation="http://sumo.dlr.de/xsd/netconvertConfiguration.xsd">

    <input>
        <sumo-net-file value="/home/ming/Projects/Gitlab/SMARTS/scenarios/stage2/silverstone/map.net.xml"/>
    </input>

    <output>
        <output-file value="/home/ming/Projects/Gitlab/SMARTS/scenarios/stage2/silverstone/map.net.xml"/>
    </output>

    <processing>
        <geometry.min-radius.fix.railways value="false"/>
        <geometry.max-grade.fix value="false"/>
        <offset.disable-normalization value="true"/>
        <lefthand value="false"/>
    </processing>

    <junctions>
        <no-turnarounds value="true"/>
        <junctions.corner-detail value="5"/>
        <junctions.limit-turn-speed value="5.5"/>
        <rectangular-lane-cut value="false"/>
    </junctions>

    <pedestrian>
        <walkingareas value="false"/>
    </pedestrian>

    <report>
        <aggregate-warnings value="5"/>
    </report>

</configuration>
-->

<net version="1.3" junctionCornerDetail="5" limitTurnSpeed="5.50" xmlns:xsi="http://www.w3.org/2001/XMLSchema-instance" xsi:noNamespaceSchemaLocation="http://sumo.dlr.de/xsd/net_file.xsd">

    <location netOffset="-635087.07,-5769553.98" convBoundary="1005.39,1180.85,1354.36,1587.82" origBoundary="-1.028566,52.059943,-1.006400,52.081686" projParameter="+proj=utm +zone=30 +ellps=WGS84 +datum=WGS84 +units=m +no_defs"/>

    <type id="highway.bridleway" priority="1" numLanes="1" speed="2.78" allow="pedestrian" oneway="1" width="2.00"/>
    <type id="highway.bus_guideway" priority="1" numLanes="1" speed="27.78" allow="bus" oneway="1"/>
    <type id="highway.cycleway" priority="1" numLanes="1" speed="8.33" allow="bicycle" oneway="0" width="1.00"/>
    <type id="highway.footway" priority="1" numLanes="1" speed="2.78" allow="pedestrian" oneway="1" width="2.00"/>
    <type id="highway.ford" priority="1" numLanes="1" speed="2.78" allow="army" oneway="0"/>
    <type id="highway.living_street" priority="2" numLanes="1" speed="2.78" disallow="tram rail_urban rail rail_electric rail_fast ship" oneway="0"/>
    <type id="highway.motorway" priority="14" numLanes="2" speed="39.44" allow="private emergency authority army vip passenger hov taxi bus coach delivery truck trailer motorcycle evehicle custom1 custom2" oneway="1"/>
    <type id="highway.motorway_link" priority="9" numLanes="1" speed="22.22" allow="private emergency authority army vip passenger hov taxi bus coach delivery truck trailer motorcycle evehicle custom1 custom2" oneway="1"/>
    <type id="highway.path" priority="1" numLanes="1" speed="2.78" allow="pedestrian bicycle" oneway="1" width="2.00"/>
    <type id="highway.pedestrian" priority="1" numLanes="1" speed="2.78" allow="pedestrian" oneway="1" width="2.00"/>
    <type id="highway.primary" priority="12" numLanes="2" speed="27.78" disallow="tram rail_urban rail rail_electric rail_fast ship" oneway="0"/>
    <type id="highway.primary_link" priority="7" numLanes="1" speed="22.22" disallow="tram rail_urban rail rail_electric rail_fast ship" oneway="0"/>
    <type id="highway.raceway" priority="15" numLanes="2" speed="30.00" allow="vip" oneway="0"/>
    <type id="highway.residential" priority="3" numLanes="1" speed="13.89" disallow="tram rail_urban rail rail_electric rail_fast ship" oneway="0"/>
    <type id="highway.secondary" priority="11" numLanes="1" speed="27.78" disallow="tram rail_urban rail rail_electric rail_fast ship" oneway="0"/>
    <type id="highway.secondary_link" priority="6" numLanes="1" speed="22.22" disallow="tram rail_urban rail rail_electric rail_fast ship" oneway="0"/>
    <type id="highway.service" priority="1" numLanes="1" speed="5.56" allow="pedestrian delivery bicycle" oneway="0"/>
    <type id="highway.stairs" priority="1" numLanes="1" speed="1.39" allow="pedestrian" oneway="1" width="2.00"/>
    <type id="highway.step" priority="1" numLanes="1" speed="1.39" allow="pedestrian" oneway="1" width="2.00"/>
    <type id="highway.steps" priority="1" numLanes="1" speed="1.39" allow="pedestrian" oneway="1" width="2.00"/>
    <type id="highway.tertiary" priority="10" numLanes="1" speed="22.22" disallow="tram rail_urban rail rail_electric rail_fast ship" oneway="0"/>
    <type id="highway.tertiary_link" priority="5" numLanes="1" speed="22.22" disallow="tram rail_urban rail rail_electric rail_fast ship" oneway="0"/>
    <type id="highway.track" priority="1" numLanes="1" speed="5.56" disallow="tram rail_urban rail rail_electric rail_fast ship" oneway="0"/>
    <type id="highway.trunk" priority="13" numLanes="2" speed="27.78" disallow="pedestrian bicycle tram rail_urban rail rail_electric rail_fast ship" oneway="0"/>
    <type id="highway.trunk_link" priority="8" numLanes="1" speed="22.22" disallow="pedestrian bicycle tram rail_urban rail rail_electric rail_fast ship" oneway="0"/>
    <type id="highway.unclassified" priority="4" numLanes="1" speed="13.89" disallow="tram rail_urban rail rail_electric rail_fast ship" oneway="0"/>
    <type id="highway.unsurfaced" priority="1" numLanes="1" speed="8.33" disallow="tram rail_urban rail rail_electric rail_fast ship" oneway="0"/>
    <type id="railway.highspeed" priority="21" numLanes="1" speed="69.44" allow="rail_fast" oneway="1"/>
    <type id="railway.light_rail" priority="19" numLanes="1" speed="27.78" allow="rail_urban" oneway="1"/>
    <type id="railway.preserved" priority="16" numLanes="1" speed="27.78" allow="rail" oneway="1"/>
    <type id="railway.rail" priority="20" numLanes="1" speed="44.44" allow="rail" oneway="1"/>
    <type id="railway.subway" priority="18" numLanes="1" speed="27.78" allow="rail_urban" oneway="1"/>
    <type id="railway.tram" priority="17" numLanes="1" speed="13.89" allow="tram" oneway="1"/>

    <edge id=":17660162_0" function="internal">
        <lane id=":17660162_0_0" index="0" disallow="pedestrian tram rail_urban rail rail_electric rail_fast ship" speed="30.00" length="0.37" shape="1334.32,1291.58 1334.38,1291.51"/>
        <lane id=":17660162_0_1" index="1" disallow="pedestrian tram rail_urban rail rail_electric rail_fast ship" speed="30.00" length="0.37" shape="1336.82,1293.59 1336.99,1293.37"/>
        <lane id=":17660162_0_2" index="2" disallow="pedestrian tram rail_urban rail rail_electric rail_fast ship" speed="30.00" length="0.37" shape="1339.31,1295.60 1339.59,1295.23"/>
        <lane id=":17660162_0_3" index="3" disallow="pedestrian tram rail_urban rail rail_electric rail_fast ship" speed="30.00" length="0.37" shape="1341.80,1297.60 1342.19,1297.09"/>
    </edge>
    <edge id=":17660174_0" function="internal">
        <lane id=":17660174_0_0" index="0" disallow="pedestrian tram rail_urban rail rail_electric rail_fast ship" speed="30.00" length="0.33" shape="1319.70,1484.43 1319.63,1484.22"/>
        <lane id=":17660174_0_1" index="1" disallow="pedestrian tram rail_urban rail rail_electric rail_fast ship" speed="30.00" length="0.33" shape="1322.76,1483.49 1322.67,1483.21"/>
        <lane id=":17660174_0_2" index="2" disallow="pedestrian tram rail_urban rail rail_electric rail_fast ship" speed="30.00" length="0.33" shape="1325.82,1482.55 1325.71,1482.20"/>
        <lane id=":17660174_0_3" index="3" disallow="pedestrian tram rail_urban rail rail_electric rail_fast ship" speed="30.00" length="0.33" shape="1328.88,1481.60 1328.74,1481.19"/>
    </edge>
    <edge id=":17665503_0" function="internal">
        <lane id=":17665503_0_0" index="0" disallow="pedestrian tram rail_urban rail rail_electric rail_fast ship" speed="30.00" length="0.30" shape="1176.98,1504.70 1176.78,1504.92"/>
        <lane id=":17665503_0_1" index="1" disallow="pedestrian tram rail_urban rail rail_electric rail_fast ship" speed="30.00" length="0.30" shape="1174.61,1502.55 1174.41,1502.77"/>
        <lane id=":17665503_0_2" index="2" disallow="pedestrian tram rail_urban rail rail_electric rail_fast ship" speed="30.00" length="0.30" shape="1172.23,1500.41 1172.03,1500.63"/>
        <lane id=":17665503_0_3" index="3" disallow="pedestrian tram rail_urban rail rail_electric rail_fast ship" speed="30.00" length="0.30" shape="1169.86,1498.26 1169.65,1498.49"/>
    </edge>
    <edge id=":1809612945_0" function="internal">
        <lane id=":1809612945_0_0" index="0" disallow="pedestrian tram rail_urban rail rail_electric rail_fast ship" speed="30.00" length="0.29" shape="1095.54,1381.03 1095.60,1380.83"/>
        <lane id=":1809612945_0_1" index="1" disallow="pedestrian tram rail_urban rail rail_electric rail_fast ship" speed="30.00" length="0.29" shape="1098.57,1382.05 1098.65,1381.81"/>
        <lane id=":1809612945_0_2" index="2" disallow="pedestrian tram rail_urban rail rail_electric rail_fast ship" speed="30.00" length="0.29" shape="1101.60,1383.08 1101.70,1382.78"/>
        <lane id=":1809612945_0_3" index="3" disallow="pedestrian tram rail_urban rail rail_electric rail_fast ship" speed="30.00" length="0.29" shape="1104.63,1384.10 1104.75,1383.75"/>
    </edge>
    <edge id=":1809612946_0" function="internal">
        <lane id=":1809612946_0_0" index="0" disallow="pedestrian tram rail_urban rail rail_electric rail_fast ship" speed="30.00" length="0.62" shape="1204.93,1405.73 1205.00,1406.56"/>
        <lane id=":1809612946_0_1" index="1" disallow="pedestrian tram rail_urban rail rail_electric rail_fast ship" speed="30.00" length="0.62" shape="1201.75,1406.05 1201.80,1406.74"/>
        <lane id=":1809612946_0_2" index="2" disallow="pedestrian tram rail_urban rail rail_electric rail_fast ship" speed="30.00" length="0.62" shape="1198.57,1406.37 1198.61,1406.92"/>
        <lane id=":1809612946_0_3" index="3" disallow="pedestrian tram rail_urban rail rail_electric rail_fast ship" speed="30.00" length="0.62" shape="1195.38,1406.69 1195.41,1407.09"/>
    </edge>
    <edge id=":1809612948_0" function="internal">
        <lane id=":1809612948_0_0" index="0" disallow="pedestrian tram rail_urban rail rail_electric rail_fast ship" speed="30.00" length="0.34" shape="1047.12,1397.32 1047.18,1397.37"/>
        <lane id=":1809612948_0_1" index="1" disallow="pedestrian tram rail_urban rail rail_electric rail_fast ship" speed="30.00" length="0.34" shape="1045.06,1399.77 1045.26,1399.92"/>
        <lane id=":1809612948_0_2" index="2" disallow="pedestrian tram rail_urban rail rail_electric rail_fast ship" speed="30.00" length="0.34" shape="1043.00,1402.22 1043.33,1402.48"/>
        <lane id=":1809612948_0_3" index="3" disallow="pedestrian tram rail_urban rail rail_electric rail_fast ship" speed="30.00" length="0.34" shape="1040.94,1404.67 1041.40,1405.03"/>
    </edge>
    <edge id=":1810084412_0" function="internal">
        <lane id=":1810084412_0_0" index="0" disallow="pedestrian tram rail_urban rail rail_electric rail_fast ship" speed="30.00" length="0.30" shape="1158.59,1525.09 1158.42,1525.29"/>
        <lane id=":1810084412_0_1" index="1" disallow="pedestrian tram rail_urban rail rail_electric rail_fast ship" speed="30.00" length="0.30" shape="1156.22,1522.95 1156.03,1523.17"/>
        <lane id=":1810084412_0_2" index="2" disallow="pedestrian tram rail_urban rail rail_electric rail_fast ship" speed="30.00" length="0.30" shape="1153.84,1520.81 1153.64,1521.04"/>
        <lane id=":1810084412_0_3" index="3" disallow="pedestrian tram rail_urban rail rail_electric rail_fast ship" speed="30.00" length="0.30" shape="1151.46,1518.67 1151.25,1518.91"/>
    </edge>
    <edge id=":2364623778_0" function="internal">
        <lane id=":2364623778_0_0" index="0" disallow="pedestrian tram rail_urban rail rail_electric rail_fast ship" speed="30.00" length="0.93" shape="1132.58,1288.52 1132.95,1288.22 1133.22,1288.03 1133.50,1287.85 1133.91,1287.61"/>
        <lane id=":2364623778_0_1" index="1" disallow="pedestrian tram rail_urban rail rail_electric rail_fast ship" speed="30.00" length="0.93" shape="1134.56,1291.03 1134.83,1290.82 1135.02,1290.68 1135.22,1290.56 1135.51,1290.38"/>
        <lane id=":2364623778_0_2" index="2" disallow="pedestrian tram rail_urban rail rail_electric rail_fast ship" speed="30.00" length="0.93" shape="1136.54,1293.54 1136.70,1293.42 1136.81,1293.33 1136.93,1293.26 1137.11,1293.16"/>
        <lane id=":2364623778_0_3" index="3" disallow="pedestrian tram rail_urban rail rail_electric rail_fast ship" speed="30.00" length="0.93" shape="1138.52,1296.06 1138.57,1296.02 1138.61,1295.99 1138.65,1295.96 1138.71,1295.93"/>
    </edge>
    <edge id=":2364623901_0" function="internal">
        <lane id=":2364623901_0_0" index="0" disallow="pedestrian tram rail_urban rail rail_electric rail_fast ship" speed="30.00" length="0.55" shape="1326.47,1196.52 1326.21,1196.28"/>
        <lane id=":2364623901_0_1" index="1" disallow="pedestrian tram rail_urban rail rail_electric rail_fast ship" speed="30.00" length="0.55" shape="1328.70,1194.23 1328.35,1193.90"/>
        <lane id=":2364623901_0_2" index="2" disallow="pedestrian tram rail_urban rail rail_electric rail_fast ship" speed="30.00" length="0.55" shape="1330.93,1191.93 1330.49,1191.52"/>
        <lane id=":2364623901_0_3" index="3" disallow="pedestrian tram rail_urban rail rail_electric rail_fast ship" speed="30.00" length="0.55" shape="1333.16,1189.64 1332.63,1189.14"/>
    </edge>
    <edge id=":4291583941_0" function="internal">
        <lane id=":4291583941_0_0" index="0" disallow="pedestrian tram rail_urban rail rail_electric rail_fast ship" speed="30.00" length="0.30" shape="1304.21,1437.87 1304.12,1437.57"/>
        <lane id=":4291583941_0_1" index="1" disallow="pedestrian tram rail_urban rail rail_electric rail_fast ship" speed="30.00" length="0.30" shape="1307.25,1436.86 1307.15,1436.57"/>
        <lane id=":4291583941_0_2" index="2" disallow="pedestrian tram rail_urban rail rail_electric rail_fast ship" speed="30.00" length="0.30" shape="1310.29,1435.85 1310.19,1435.57"/>
        <lane id=":4291583941_0_3" index="3" disallow="pedestrian tram rail_urban rail rail_electric rail_fast ship" speed="30.00" length="0.30" shape="1313.32,1434.84 1313.23,1434.56"/>
    </edge>
    <edge id=":831017911_0" function="internal">
        <lane id=":831017911_0_0" index="0" disallow="pedestrian tram rail_urban rail rail_electric rail_fast ship" speed="30.00" length="0.63" shape="1178.73,1309.91 1178.90,1310.19 1179.00,1310.39 1179.10,1310.59 1179.24,1310.89"/>
        <lane id=":831017911_0_1" index="1" disallow="pedestrian tram rail_urban rail rail_electric rail_fast ship" speed="30.00" length="0.63" shape="1175.97,1311.53 1176.09,1311.73 1176.17,1311.87 1176.24,1312.02 1176.34,1312.23"/>
        <lane id=":831017911_0_2" index="2" disallow="pedestrian tram rail_urban rail rail_electric rail_fast ship" speed="30.00" length="0.63" shape="1173.21,1313.15 1173.28,1313.27 1173.33,1313.35 1173.37,1313.44 1173.43,1313.57"/>
        <lane id=":831017911_0_3" index="3" disallow="pedestrian tram rail_urban rail rail_electric rail_fast ship" speed="30.00" length="0.63" shape="1170.45,1314.77 1170.47,1314.81 1170.49,1314.83 1170.50,1314.86 1170.52,1314.91"/>
    </edge>
    <edge id=":gneJ4_0" function="internal">
        <lane id=":gneJ4_0_0" index="0" disallow="pedestrian tram rail_urban rail rail_electric rail_fast ship" speed="30.00" length="0.45" shape="1221.34,1185.65 1221.04,1185.65"/>
        <lane id=":gneJ4_0_1" index="1" disallow="pedestrian tram rail_urban rail rail_electric rail_fast ship" speed="30.00" length="0.45" shape="1221.36,1182.45 1220.96,1182.45"/>
        <lane id=":gneJ4_0_2" index="2" disallow="pedestrian tram rail_urban rail rail_electric rail_fast ship" speed="30.00" length="0.45" shape="1221.39,1179.25 1220.89,1179.26"/>
        <lane id=":gneJ4_0_3" index="3" disallow="pedestrian tram rail_urban rail rail_electric rail_fast ship" speed="30.00" length="0.45" shape="1221.41,1176.05 1220.81,1176.06"/>
    </edge>
    <edge id=":gneJ5_0" function="internal">
        <lane id=":gneJ5_0_0" index="0" disallow="pedestrian tram rail_urban rail rail_electric rail_fast ship" speed="30.00" length="0.34" shape="1127.86,1187.82 1127.77,1187.83"/>
        <lane id=":gneJ5_0_1" index="1" disallow="pedestrian tram rail_urban rail rail_electric rail_fast ship" speed="30.00" length="0.34" shape="1127.78,1184.63 1127.53,1184.64"/>
        <lane id=":gneJ5_0_2" index="2" disallow="pedestrian tram rail_urban rail rail_electric rail_fast ship" speed="30.00" length="0.34" shape="1127.71,1181.43 1127.30,1181.45"/>
        <lane id=":gneJ5_0_3" index="3" disallow="pedestrian tram rail_urban rail rail_electric rail_fast ship" speed="30.00" length="0.34" shape="1127.63,1178.23 1127.06,1178.26"/>
    </edge>
    <edge id=":gneJ6_0" function="internal">
        <lane id=":gneJ6_0_0" index="0" disallow="pedestrian tram rail_urban rail rail_electric rail_fast ship" speed="30.00" length="0.50" shape="1042.15,1248.04 1042.03,1248.35"/>
        <lane id=":gneJ6_0_1" index="1" disallow="pedestrian tram rail_urban rail rail_electric rail_fast ship" speed="30.00" length="0.50" shape="1039.21,1246.79 1039.04,1247.20"/>
        <lane id=":gneJ6_0_2" index="2" disallow="pedestrian tram rail_urban rail rail_electric rail_fast ship" speed="30.00" length="0.50" shape="1036.27,1245.53 1036.06,1246.05"/>
        <lane id=":gneJ6_0_3" index="3" disallow="pedestrian tram rail_urban rail rail_electric rail_fast ship" speed="30.00" length="0.50" shape="1033.32,1244.28 1033.07,1244.90"/>
    </edge>
    <edge id=":gneJ7_0" function="internal">
        <lane id=":gneJ7_0_0" index="0" disallow="pedestrian tram rail_urban rail rail_electric rail_fast ship" speed="30.00" length="0.47" shape="1015.52,1317.18 1015.42,1317.47"/>
        <lane id=":gneJ7_0_1" index="1" disallow="pedestrian tram rail_urban rail rail_electric rail_fast ship" speed="30.00" length="0.47" shape="1012.54,1316.03 1012.39,1316.42"/>
        <lane id=":gneJ7_0_2" index="2" disallow="pedestrian tram rail_urban rail rail_electric rail_fast ship" speed="30.00" length="0.47" shape="1009.55,1314.88 1009.37,1315.37"/>
        <lane id=":gneJ7_0_3" index="3" disallow="pedestrian tram rail_urban rail rail_electric rail_fast ship" speed="30.00" length="0.47" shape="1006.57,1313.73 1006.35,1314.31"/>
    </edge>

    <edge id="169733766#0" from="17660162" to="2364623901" priority="15" type="highway.raceway" spreadType="center" shape="1338.18,1294.45 1340.65,1290.99 1343.03,1287.14 1346.29,1282.45 1349.11,1276.83 1351.62,1270.27 1352.76,1264.98 1353.54,1258.93 1354.36,1254.02 1354.30,1248.66 1354.28,1243.26 1353.78,1237.91 1352.49,1230.03 1350.33,1223.37 1346.74,1215.30 1342.04,1207.71 1338.80,1203.02 1334.95,1198.07 1329.62,1192.89">
        <lane id="169733766#0_0" index="0" disallow="pedestrian tram rail_urban rail rail_electric rail_fast ship" speed="30.00" length="112.12" shape="1334.38,1291.51 1336.65,1288.33 1339.01,1284.51 1342.15,1279.99 1344.71,1274.89 1347.01,1268.90 1348.03,1264.17 1348.79,1258.23 1349.56,1253.65 1349.50,1248.70 1349.48,1243.49 1349.02,1238.52 1347.81,1231.16 1345.84,1225.09 1342.49,1217.55 1338.02,1210.34 1334.93,1205.86 1331.37,1201.28 1326.47,1196.52"/>
        <lane id="169733766#0_1" index="1" disallow="pedestrian tram rail_urban rail rail_electric rail_fast ship" speed="30.00" length="112.12" shape="1336.99,1293.37 1339.32,1290.10 1341.69,1286.26 1344.91,1281.63 1347.64,1276.18 1350.08,1269.81 1351.18,1264.71 1351.96,1258.70 1352.76,1253.90 1352.70,1248.67 1352.68,1243.34 1352.19,1238.11 1350.93,1230.41 1348.83,1223.94 1345.32,1216.05 1340.70,1208.59 1337.51,1203.97 1333.76,1199.14 1328.70,1194.23"/>
        <lane id="169733766#0_2" index="2" disallow="pedestrian tram rail_urban rail rail_electric rail_fast ship" speed="30.00" length="112.12" shape="1339.59,1295.23 1341.98,1291.88 1344.37,1288.02 1347.67,1283.27 1350.58,1277.48 1353.16,1270.73 1354.34,1265.25 1355.12,1259.16 1355.96,1254.14 1355.90,1248.65 1355.88,1243.18 1355.37,1237.71 1354.05,1229.65 1351.83,1222.80 1348.16,1214.55 1343.38,1206.83 1340.09,1202.07 1336.14,1197.00 1330.93,1191.93"/>
        <lane id="169733766#0_3" index="3" disallow="pedestrian tram rail_urban rail rail_electric rail_fast ship" speed="30.00" length="112.12" shape="1342.19,1297.09 1344.65,1293.65 1347.05,1289.77 1350.43,1284.91 1353.51,1278.77 1356.23,1271.64 1357.49,1265.79 1358.29,1259.63 1359.16,1254.39 1359.10,1248.62 1359.08,1243.03 1358.54,1237.30 1357.17,1228.90 1354.82,1221.65 1350.99,1213.05 1346.06,1205.08 1342.67,1200.18 1338.53,1194.86 1333.16,1189.64"/>
    </edge>
    <edge id="169733768" from="1810084412" to="17660174" priority="15" type="highway.raceway" spreadType="center" shape="1154.93,1521.99 1144.57,1533.63 1141.35,1541.24 1140.83,1549.81 1142.57,1557.71 1147.58,1565.05 1158.06,1569.89 1170.30,1572.92 1182.48,1574.94 1196.30,1577.02 1208.65,1579.18 1224.04,1581.66 1238.91,1584.18 1249.33,1586.07 1260.09,1587.31 1271.85,1587.82 1282.76,1586.64 1290.00,1583.76 1295.98,1579.41 1301.51,1574.01 1305.49,1569.30 1309.46,1564.24 1313.18,1558.73 1316.66,1553.65 1320.85,1547.81 1324.99,1540.99 1326.78,1536.13 1328.94,1530.43 1330.24,1523.55 1330.90,1517.51 1330.45,1511.93 1330.08,1507.07 1329.45,1502.03 1328.59,1496.97 1324.24,1482.86">
        <lane id="169733768_0" index="0" disallow="pedestrian tram rail_urban rail rail_electric rail_fast ship" speed="30.00" length="310.23" shape="1158.42,1525.29 1148.68,1536.23 1146.09,1542.35 1145.66,1549.43 1147.06,1555.77 1150.80,1561.25 1159.66,1565.34 1171.27,1568.22 1183.23,1570.20 1197.07,1572.28 1209.45,1574.45 1224.82,1576.92 1239.74,1579.45 1250.03,1581.32 1260.47,1582.52 1271.70,1583.01 1281.59,1581.94 1287.66,1579.52 1292.88,1575.73 1297.99,1570.74 1301.77,1566.27 1305.58,1561.41 1309.21,1556.03 1312.73,1550.89 1316.84,1545.16 1320.65,1538.90 1322.28,1534.45 1324.30,1529.12 1325.49,1522.84 1326.08,1517.44 1325.66,1512.31 1325.30,1507.55 1324.70,1502.73 1323.91,1498.08 1319.70,1484.43"/>
        <lane id="169733768_1" index="1" disallow="pedestrian tram rail_urban rail rail_electric rail_fast ship" speed="30.00" length="310.23" shape="1156.03,1523.17 1145.94,1534.50 1142.93,1541.61 1142.44,1549.68 1144.07,1557.06 1148.65,1563.78 1158.59,1568.37 1170.62,1571.35 1182.73,1573.36 1196.56,1575.44 1208.92,1577.60 1224.30,1580.08 1239.19,1582.60 1249.56,1584.49 1260.22,1585.71 1271.80,1586.22 1282.37,1585.07 1289.22,1582.35 1294.95,1578.18 1300.34,1572.92 1304.25,1568.29 1308.17,1563.30 1311.86,1557.83 1315.35,1552.73 1319.51,1546.93 1323.54,1540.29 1325.28,1535.57 1327.39,1529.99 1328.66,1523.31 1329.29,1517.49 1328.85,1512.06 1328.49,1507.23 1327.87,1502.26 1327.03,1497.34 1322.76,1483.49"/>
        <lane id="169733768_2" index="2" disallow="pedestrian tram rail_urban rail rail_electric rail_fast ship" speed="30.00" length="310.23" shape="1153.64,1521.04 1143.20,1532.76 1139.77,1540.87 1139.22,1549.94 1141.07,1558.36 1146.51,1566.32 1157.53,1571.41 1169.98,1574.49 1182.23,1576.52 1196.04,1578.60 1208.38,1580.76 1223.78,1583.24 1238.63,1585.76 1249.10,1587.65 1259.96,1588.91 1271.90,1589.42 1283.15,1588.21 1290.78,1585.17 1297.01,1580.64 1302.68,1575.10 1306.73,1570.31 1310.75,1565.18 1314.50,1559.63 1317.97,1554.57 1322.19,1548.69 1326.44,1541.69 1328.28,1536.69 1330.49,1530.87 1331.82,1523.79 1332.51,1517.53 1332.05,1511.80 1331.67,1506.91 1331.03,1501.80 1330.15,1496.60 1325.82,1482.55"/>
        <lane id="169733768_3" index="3" disallow="pedestrian tram rail_urban rail rail_electric rail_fast ship" speed="30.00" length="310.23" shape="1151.25,1518.91 1140.46,1531.03 1136.61,1540.13 1136.00,1550.19 1138.08,1559.65 1144.36,1568.85 1156.46,1574.44 1169.33,1577.62 1181.73,1579.68 1195.53,1581.76 1207.85,1583.91 1223.26,1586.40 1238.08,1588.91 1248.63,1590.82 1259.71,1592.10 1272.00,1592.63 1283.93,1591.34 1292.34,1588.00 1299.08,1583.09 1305.03,1577.28 1309.21,1572.33 1313.34,1567.07 1317.15,1561.43 1320.59,1556.41 1324.86,1550.46 1329.33,1543.08 1331.28,1537.81 1333.58,1531.74 1334.99,1524.26 1335.72,1517.58 1335.24,1511.55 1334.86,1506.59 1334.20,1501.33 1333.27,1495.86 1328.88,1481.60"/>
    </edge>
    <edge id="169800222" from="1809612946" to="17665503" priority="15" type="highway.raceway" spreadType="center" shape="1200.19,1406.52 1201.52,1430.58 1201.54,1438.49 1201.35,1445.64 1200.84,1453.41 1200.24,1459.37 1199.23,1465.12 1197.80,1470.57 1195.83,1475.11 1193.89,1478.72 1191.41,1481.96 1188.57,1485.19 1183.46,1490.37 1173.32,1501.59">
        <lane id="169800222_0" index="0" disallow="pedestrian tram rail_urban rail rail_electric rail_fast ship" speed="30.00" length="103.78" shape="1205.00,1406.56 1206.32,1430.44 1206.34,1438.55 1206.15,1445.86 1205.62,1453.81 1205.00,1460.03 1203.92,1466.15 1202.35,1472.14 1200.15,1477.21 1197.94,1481.33 1195.12,1485.01 1192.08,1488.46 1186.95,1493.67 1176.98,1504.70"/>
        <lane id="169800222_1" index="1" disallow="pedestrian tram rail_urban rail rail_electric rail_fast ship" speed="30.00" length="103.78" shape="1201.80,1406.74 1203.12,1430.53 1203.14,1438.51 1202.95,1445.71 1202.43,1453.54 1201.83,1459.59 1200.79,1465.46 1199.32,1471.09 1197.27,1475.81 1195.24,1479.59 1192.65,1482.98 1189.74,1486.28 1184.62,1491.47 1174.61,1502.55"/>
        <lane id="169800222_2" index="2" disallow="pedestrian tram rail_urban rail rail_electric rail_fast ship" speed="30.00" length="103.78" shape="1198.61,1406.92 1199.92,1430.63 1199.94,1438.47 1199.75,1445.57 1199.25,1453.28 1198.65,1459.15 1197.67,1464.78 1196.28,1470.05 1194.39,1474.41 1192.54,1477.85 1190.17,1480.94 1187.40,1484.10 1182.30,1489.27 1172.23,1500.41"/>
        <lane id="169800222_3" index="3" disallow="pedestrian tram rail_urban rail rail_electric rail_fast ship" speed="30.00" length="103.78" shape="1195.41,1407.09 1196.72,1430.72 1196.74,1438.43 1196.55,1445.42 1196.06,1453.01 1195.48,1458.71 1194.54,1464.09 1193.25,1469.00 1191.51,1473.01 1189.84,1476.11 1187.70,1478.91 1185.06,1481.92 1179.97,1487.07 1169.86,1498.26"/>
    </edge>
    <edge id="169800224#0" from="1809612945" to="2364623778" priority="15" type="highway.raceway" spreadType="center" shape="1100.13,1382.43 1122.79,1311.41 1123.69,1308.36 1124.87,1305.46 1125.85,1303.47 1127.00,1301.67 1128.15,1299.86 1129.68,1297.89 1131.58,1295.56 1133.65,1293.78 1135.91,1292.00">
        <lane id="169800224#0_0" index="0" disallow="pedestrian tram rail_urban rail rail_electric rail_fast ship" speed="30.00" length="97.86" shape="1095.60,1380.83 1118.22,1309.96 1119.15,1306.77 1120.49,1303.49 1121.66,1301.11 1122.95,1299.09 1124.22,1297.09 1125.93,1294.90 1128.13,1292.20 1130.60,1290.07 1132.58,1288.52"/>
        <lane id="169800224#0_1" index="1" disallow="pedestrian tram rail_urban rail rail_electric rail_fast ship" speed="30.00" length="97.86" shape="1098.65,1381.81 1121.27,1310.93 1122.18,1307.83 1123.41,1304.80 1124.45,1302.68 1125.65,1300.81 1126.84,1298.94 1128.43,1296.89 1130.43,1294.44 1132.63,1292.54 1134.56,1291.03"/>
        <lane id="169800224#0_2" index="2" disallow="pedestrian tram rail_urban rail rail_electric rail_fast ship" speed="30.00" length="97.86" shape="1101.70,1382.78 1124.31,1311.89 1125.20,1308.89 1126.33,1306.12 1127.25,1304.26 1128.35,1302.53 1129.46,1300.78 1130.93,1298.89 1132.73,1296.68 1134.67,1295.02 1136.54,1293.54"/>
        <lane id="169800224#0_3" index="3" disallow="pedestrian tram rail_urban rail rail_electric rail_fast ship" speed="30.00" length="97.86" shape="1104.75,1383.75 1127.36,1312.86 1128.23,1309.95 1129.25,1307.43 1130.04,1305.83 1131.05,1304.25 1132.08,1302.63 1133.43,1300.88 1135.03,1298.92 1136.70,1297.49 1138.52,1296.06"/>
    </edge>
    <edge id="169800224#1" from="2364623778" to="831017911" priority="15" type="highway.raceway" spreadType="center" shape="1135.91,1292.00 1138.34,1290.60 1140.76,1289.57 1143.90,1288.92 1146.49,1288.62 1148.80,1288.78 1151.62,1289.50 1153.91,1290.39 1156.81,1291.94 1159.77,1294.13 1162.93,1296.69 1165.80,1299.53 1168.48,1302.53 1170.77,1305.90 1172.89,1309.44 1174.75,1312.61">
        <lane id="169800224#1_0" index="0" disallow="pedestrian tram rail_urban rail rail_electric rail_fast ship" speed="30.00" length="49.12" shape="1133.91,1287.61 1136.19,1286.30 1139.32,1284.97 1143.14,1284.18 1146.38,1283.80 1149.57,1284.02 1153.09,1284.92 1155.92,1286.02 1159.38,1287.87 1162.71,1290.33 1166.14,1293.11 1169.28,1296.22 1172.27,1299.57 1174.82,1303.32 1177.02,1306.99 1178.73,1309.91"/>
        <lane id="169800224#1_1" index="1" disallow="pedestrian tram rail_urban rail rail_electric rail_fast ship" speed="30.00" length="49.12" shape="1135.51,1290.38 1137.62,1289.17 1140.28,1288.04 1143.65,1287.34 1146.45,1287.01 1149.06,1287.19 1152.11,1287.97 1154.58,1288.93 1157.67,1290.58 1160.75,1292.86 1164.00,1295.50 1166.96,1298.43 1169.74,1301.54 1172.12,1305.04 1174.27,1308.62 1175.97,1311.53"/>
        <lane id="169800224#1_2" index="2" disallow="pedestrian tram rail_urban rail rail_electric rail_fast ship" speed="30.00" length="49.12" shape="1137.11,1293.16 1139.06,1292.03 1141.24,1291.10 1144.15,1290.50 1146.53,1290.23 1148.54,1290.37 1151.13,1291.03 1153.24,1291.85 1155.95,1293.30 1158.79,1295.40 1161.86,1297.88 1164.64,1300.63 1167.22,1303.52 1169.42,1306.76 1171.51,1310.26 1173.21,1313.15"/>
        <lane id="169800224#1_3" index="3" disallow="pedestrian tram rail_urban rail rail_electric rail_fast ship" speed="30.00" length="49.12" shape="1138.71,1295.93 1140.49,1294.90 1142.20,1294.17 1144.66,1293.66 1146.60,1293.44 1148.03,1293.54 1150.15,1294.08 1151.90,1294.76 1154.24,1296.01 1156.83,1297.93 1159.72,1300.27 1162.32,1302.84 1164.69,1305.49 1166.72,1308.48 1168.76,1311.89 1170.45,1314.77"/>
    </edge>
    <edge id="169800224#2" from="831017911" to="1809612946" priority="15" type="highway.raceway" spreadType="center" shape="1174.75,1312.61 1176.38,1316.15 1178.11,1320.24 1180.93,1327.55 1183.43,1333.96 1186.42,1341.83 1189.68,1351.95 1192.59,1362.47 1195.50,1373.88 1197.49,1384.80 1199.19,1396.59 1200.19,1406.52">